/*---------------------------------------------------------------------------*\
| =========                 |                                                 |
| \\      /  F ield         | OpenFOAM: The Open Source CFD Toolbox           |
|  \\    /   O peration     | Version:  4.x                                   |
|   \\  /    A nd           | Web:      www.OpenFOAM.org                      |
|    \\/     M anipulation  |                                                 |
\*---------------------------------------------------------------------------*/
Build  : 4.x-be7fba6cff9b
Exec   : interFoam -parallel
Date   : Nov 15 2016
Time   : 13:48:00
Host   : "hydrogen"
PID    : 1672
Case   : /home/sam/School/489/gemix/kEpsilon
nProcs : 4
Slaves : 
3
(
"hydrogen.1673"
"hydrogen.1674"
"hydrogen.1675"
)

Pstream initialized with:
    floatTransfer      : 0
    nProcsSimpleSum    : 0
    commsType          : nonBlocking
    polling iterations : 0
sigFpe : Enabling floating point exception trapping (FOAM_SIGFPE).
fileModificationChecking : Monitoring run-time modified files using timeStampMaster
allowSystemOperations : Allowing user-supplied system call operations

// * * * * * * * * * * * * * * * * * * * * * * * * * * * * * * * * * * * * * //
Create time

Create mesh for time = 0


PIMPLE: Operating solver in PISO mode

Reading field p_rgh

Reading field U

Reading/calculating face flux field phi

Reading transportProperties

Selecting incompressible transport model Newtonian
Selecting incompressible transport model Newtonian
Selecting turbulence model type RAS
Selecting RAS turbulence model kEpsilon
kEpsilonCoeffs
{
    Cmu             0.09;
    C1              1.44;
    C2              1.92;
    C3              -0.33;
    sigmak          1;
    sigmaEps        1.3;
}


Reading g

Reading hRef
Calculating field g.h

No MRF models present

Creating finite volume options from "constant/fvOptions"

GAMGPCG:  Solving for pcorr, Initial residual = 1, Final residual = 3.92387e-06, No Iterations 5
time step continuity errors : sum local = 6.03777e-07, global = 1.41552e-07, cumulative = 1.41552e-07
Courant Number mean: 0.321953 max: 163.964

Starting time loop

Courant Number mean: 0.00196313 max: 0.999779
Interface Courant Number mean: 0 max: 0
deltaT = 3.04878e-05
Time = 3.04878e-05

PIMPLE: iteration 1
smoothSolver:  Solving for alpha.upper, Initial residual = 1, Final residual = 1.64627e-09, No Iterations 2
Phase-1 volume fraction = 0.000268929  Min(alpha.upper) = 0  Max(alpha.upper) = 1
MULES: Correcting alpha.upper
MULES: Correcting alpha.upper
Phase-1 volume fraction = 0.00026873  Min(alpha.upper) = -6.97344e-10  Max(alpha.upper) = 1
GAMG:  Solving for p_rgh, Initial residual = 1, Final residual = 0.00331519, No Iterations 4
time step continuity errors : sum local = 3.11047e-06, global = -3.0936e-06, cumulative = -2.95205e-06
GAMG:  Solving for p_rgh, Initial residual = 0.038533, Final residual = 0.000224216, No Iterations 3
time step continuity errors : sum local = 1.39462e-06, global = 1.34078e-06, cumulative = -1.61127e-06
GAMG:  Solving for p_rgh, Initial residual = 0.00263158, Final residual = 3.03015e-09, No Iterations 12
time step continuity errors : sum local = 1.75188e-11, global = 2.12314e-12, cumulative = -1.61127e-06
smoothSolver:  Solving for epsilon, Initial residual = 0.0115733, Final residual = 1.34274e-07, No Iterations 2
smoothSolver:  Solving for k, Initial residual = 1, Final residual = 7.96161e-08, No Iterations 5
ExecutionTime = 0.01 s  ClockTime = 0 s

Courant Number mean: 0.00200398 max: 0.992908
Interface Courant Number mean: 0.000698248 max: 0.992908
deltaT = 3.06938e-05
Time = 6.11816e-05

PIMPLE: iteration 1
smoothSolver:  Solving for alpha.upper, Initial residual = 0.116147, Final residual = 3.21935e-10, No Iterations 2
Phase-1 volume fraction = 0.000533645  Min(alpha.upper) = 0  Max(alpha.upper) = 1
MULES: Correcting alpha.upper
MULES: Correcting alpha.upper
Phase-1 volume fraction = 0.000533089  Min(alpha.upper) = -1.10478e-09  Max(alpha.upper) = 1
GAMG:  Solving for p_rgh, Initial residual = 0.130831, Final residual = 0.000446572, No Iterations 4
time step continuity errors : sum local = 2.6563e-06, global = 2.64274e-06, cumulative = 1.03147e-06
GAMG:  Solving for p_rgh, Initial residual = 0.0199847, Final residual = 0.000157093, No Iterations 3
time step continuity errors : sum local = 7.05045e-07, global = 6.95567e-07, cumulative = 1.72703e-06
GAMG:  Solving for p_rgh, Initial residual = 0.00770333, Final residual = 3.17306e-09, No Iterations 13
time step continuity errors : sum local = 1.39415e-11, global = -1.3976e-12, cumulative = 1.72703e-06
smoothSolver:  Solving for epsilon, Initial residual = 0.0187173, Final residual = 9.2827e-07, No Iterations 2
smoothSolver:  Solving for k, Initial residual = 0.232942, Final residual = 6.25136e-07, No Iterations 6
ExecutionTime = 0.01 s  ClockTime = 0 s

Courant Number mean: 0.00253246 max: 1.34978
Interface Courant Number mean: 0.000961041 max: 1.34978
deltaT = 2.27305e-05
Time = 8.39121e-05

PIMPLE: iteration 1
smoothSolver:  Solving for alpha.upper, Initial residual = 0.053049, Final residual = 1.16955e-10, No Iterations 2
Phase-1 volume fraction = 0.000759476  Min(alpha.upper) = 0  Max(alpha.upper) = 1
MULES: Correcting alpha.upper
MULES: Correcting alpha.upper
Phase-1 volume fraction = 0.000758453  Min(alpha.upper) = -3.71509e-10  Max(alpha.upper) = 1
GAMG:  Solving for p_rgh, Initial residual = 0.106069, Final residual = 0.000341566, No Iterations 3
time step continuity errors : sum local = 9.35263e-07, global = 7.11683e-07, cumulative = 2.43872e-06
GAMG:  Solving for p_rgh, Initial residual = 0.012511, Final residual = 5.50927e-05, No Iterations 3
time step continuity errors : sum local = 1.66864e-07, global = 1.45709e-07, cumulative = 2.58442e-06
GAMG:  Solving for p_rgh, Initial residual = 0.00550412, Final residual = 4.28277e-09, No Iterations 12
time step continuity errors : sum local = 1.28374e-11, global = 1.30897e-12, cumulative = 2.58443e-06
smoothSolver:  Solving for epsilon, Initial residual = 0.0105856, Final residual = 3.44377e-07, No Iterations 2
smoothSolver:  Solving for k, Initial residual = 0.0843014, Final residual = 7.27419e-07, No Iterations 4
ExecutionTime = 0.02 s  ClockTime = 0 s

Courant Number mean: 0.00212185 max: 1.16041
Interface Courant Number mean: 0.00082818 max: 1.16041
deltaT = 1.95826e-05
Time = 0.000103495

PIMPLE: iteration 1
smoothSolver:  Solving for alpha.upper, Initial residual = 0.0346818, Final residual = 6.10259e-11, No Iterations 2
Phase-1 volume fraction = 0.000965021  Min(alpha.upper) = 0  Max(alpha.upper) = 1
MULES: Correcting alpha.upper
MULES: Correcting alpha.upper
Phase-1 volume fraction = 0.000963245  Min(alpha.upper) = -4.84429e-10  Max(alpha.upper) = 1
GAMG:  Solving for p_rgh, Initial residual = 0.104312, Final residual = 0.000476387, No Iterations 3
time step continuity errors : sum local = 1.15969e-06, global = 1.12833e-06, cumulative = 3.71276e-06
GAMG:  Solving for p_rgh, Initial residual = 0.009553, Final residual = 3.45577e-05, No Iterations 3
time step continuity errors : sum local = 8.51333e-08, global = 7.79325e-08, cumulative = 3.79069e-06
GAMG:  Solving for p_rgh, Initial residual = 0.00466047, Final residual = 3.43846e-09, No Iterations 12
time step continuity errors : sum local = 8.37498e-12, global = -1.00032e-12, cumulative = 3.79069e-06
smoothSolver:  Solving for epsilon, Initial residual = 0.00580725, Final residual = 6.37184e-08, No Iterations 2
smoothSolver:  Solving for k, Initial residual = 0.0397166, Final residual = 7.08079e-07, No Iterations 3
ExecutionTime = 0.02 s  ClockTime = 0 s

Courant Number mean: 0.00197295 max: 1.08828
Interface Courant Number mean: 0.000781442 max: 1.08828
deltaT = 1.79937e-05
Time = 0.000121488

PIMPLE: iteration 1
smoothSolver:  Solving for alpha.upper, Initial residual = 0.0268769, Final residual = 3.66463e-11, No Iterations 2
Phase-1 volume fraction = 0.00115866  Min(alpha.upper) = 0  Max(alpha.upper) = 1
MULES: Correcting alpha.upper
MULES: Correcting alpha.upper
Phase-1 volume fraction = 0.00115567  Min(alpha.upper) = -3.57446e-10  Max(alpha.upper) = 1
GAMG:  Solving for p_rgh, Initial residual = 0.0902691, Final residual = 0.000272843, No Iterations 3
time step continuity errors : sum local = 6.05945e-07, global = 5.8213e-07, cumulative = 4.37282e-06
GAMG:  Solving for p_rgh, Initial residual = 0.0106346, Final residual = 2.31541e-05, No Iterations 3
time step continuity errors : sum local = 5.23834e-08, global = 2.07082e-08, cumulative = 4.39353e-06
GAMG:  Solving for p_rgh, Initial residual = 0.0038155, Final residual = 3.01679e-09, No Iterations 12
time step continuity errors : sum local = 6.76176e-12, global = -4.79746e-13, cumulative = 4.39353e-06
smoothSolver:  Solving for epsilon, Initial residual = 0.00340119, Final residual = 1.50312e-08, No Iterations 2
smoothSolver:  Solving for k, Initial residual = 0.0243685, Final residual = 9.83713e-08, No Iterations 3
ExecutionTime = 0.02 s  ClockTime = 0 s

Courant Number mean: 0.00191101 max: 1.0497
Interface Courant Number mean: 0.000759425 max: 1.0497
deltaT = 1.71404e-05
Time = 0.000138629

PIMPLE: iteration 1
smoothSolver:  Solving for alpha.upper, Initial residual = 0.0226238, Final residual = 2.50409e-11, No Iterations 2
Phase-1 volume fraction = 0.00134408  Min(alpha.upper) = 0  Max(alpha.upper) = 1
MULES: Correcting alpha.upper
MULES: Correcting alpha.upper
Phase-1 volume fraction = 0.00133956  Min(alpha.upper) = -8.83266e-10  Max(alpha.upper) = 1
GAMG:  Solving for p_rgh, Initial residual = 0.0705896, Final residual = 0.000237695, No Iterations 3
time step continuity errors : sum local = 5.09837e-07, global = 4.93646e-07, cumulative = 4.88717e-06
GAMG:  Solving for p_rgh, Initial residual = 0.00939305, Final residual = 2.30816e-05, No Iterations 3
time step continuity errors : sum local = 5.00309e-08, global = 1.19688e-08, cumulative = 4.89914e-06
GAMG:  Solving for p_rgh, Initial residual = 0.00292723, Final residual = 2.82266e-09, No Iterations 12
time step continuity errors : sum local = 6.07241e-12, global = -4.55005e-13, cumulative = 4.89914e-06
smoothSolver:  Solving for epsilon, Initial residual = 0.00200292, Final residual = 4.63129e-09, No Iterations 2
smoothSolver:  Solving for k, Initial residual = 0.0183967, Final residual = 2.77259e-08, No Iterations 3
ExecutionTime = 0.03 s  ClockTime = 0 s

Courant Number mean: 0.00188331 max: 1.02644
Interface Courant Number mean: 0.000746759 max: 1.02644
deltaT = 1.66984e-05
Time = 0.000155327

PIMPLE: iteration 1
smoothSolver:  Solving for alpha.upper, Initial residual = 0.0199686, Final residual = 1.99156e-11, No Iterations 2
Phase-1 volume fraction = 0.00152317  Min(alpha.upper) = 0  Max(alpha.upper) = 1
MULES: Correcting alpha.upper
MULES: Correcting alpha.upper
Phase-1 volume fraction = 0.00151718  Min(alpha.upper) = -2.02874e-09  Max(alpha.upper) = 1
GAMG:  Solving for p_rgh, Initial residual = 0.0520861, Final residual = 0.000187628, No Iterations 3
time step continuity errors : sum local = 3.98917e-07, global = 3.85055e-07, cumulative = 5.2842e-06
GAMG:  Solving for p_rgh, Initial residual = 0.00709645, Final residual = 1.66366e-05, No Iterations 3
time step continuity errors : sum local = 3.59221e-08, global = 3.94382e-09, cumulative = 5.28814e-06
GAMG:  Solving for p_rgh, Initial residual = 0.00204471, Final residual = 1.88717e-09, No Iterations 12
time step continuity errors : sum local = 4.05463e-12, global = -2.86878e-13, cumulative = 5.28814e-06
smoothSolver:  Solving for epsilon, Initial residual = 0.00108765, Final residual = 9.1628e-07, No Iterations 1
smoothSolver:  Solving for k, Initial residual = 0.0153678, Final residual = 7.22023e-07, No Iterations 2
ExecutionTime = 0.05 s  ClockTime = 0 s

Courant Number mean: 0.00187793 max: 1.01197
Interface Courant Number mean: 0.000739543 max: 1.01197
deltaT = 1.64994e-05
Time = 0.000171827

PIMPLE: iteration 1
smoothSolver:  Solving for alpha.upper, Initial residual = 0.0181544, Final residual = 1.77501e-11, No Iterations 2
Phase-1 volume fraction = 0.00169806  Min(alpha.upper) = 0  Max(alpha.upper) = 1
MULES: Correcting alpha.upper
MULES: Correcting alpha.upper
Phase-1 volume fraction = 0.00169106  Min(alpha.upper) = -3.64707e-09  Max(alpha.upper) = 1
GAMG:  Solving for p_rgh, Initial residual = 0.0375732, Final residual = 0.000131646, No Iterations 3
time step continuity errors : sum local = 2.83905e-07, global = 2.71365e-07, cumulative = 5.5595e-06
GAMG:  Solving for p_rgh, Initial residual = 0.00494491, Final residual = 1.03396e-05, No Iterations 3
time step continuity errors : sum local = 2.26242e-08, global = -8.37819e-10, cumulative = 5.55867e-06
GAMG:  Solving for p_rgh, Initial residual = 0.00133154, Final residual = 3.50182e-09, No Iterations 11
time step continuity errors : sum local = 7.6366e-12, global = -1.09208e-12, cumulative = 5.55867e-06
smoothSolver:  Solving for epsilon, Initial residual = 0.000519566, Final residual = 3.49604e-07, No Iterations 1
smoothSolver:  Solving for k, Initial residual = 0.0143609, Final residual = 3.64061e-07, No Iterations 2
ExecutionTime = 0.05 s  ClockTime = 0 s

Courant Number mean: 0.00188761 max: 1.00311
Interface Courant Number mean: 0.000736056 max: 1.00311
deltaT = 1.64449e-05
Time = 0.000188271

PIMPLE: iteration 1
smoothSolver:  Solving for alpha.upper, Initial residual = 0.0167634, Final residual = 1.73576e-11, No Iterations 2
Phase-1 volume fraction = 0.00187073  Min(alpha.upper) = 0  Max(alpha.upper) = 1
MULES: Correcting alpha.upper
MULES: Correcting alpha.upper
Phase-1 volume fraction = 0.00186317  Min(alpha.upper) = -5.62751e-09  Max(alpha.upper) = 1
GAMG:  Solving for p_rgh, Initial residual = 0.0260861, Final residual = 0.000109229, No Iterations 3
time step continuity errors : sum local = 2.40606e-07, global = 2.29916e-07, cumulative = 5.78858e-06
GAMG:  Solving for p_rgh, Initial residual = 0.00336229, Final residual = 7.30117e-06, No Iterations 3
time step continuity errors : sum local = 1.62255e-08, global = 5.47616e-10, cumulative = 5.78913e-06
GAMG:  Solving for p_rgh, Initial residual = 0.000807166, Final residual = 4.60416e-09, No Iterations 10
time step continuity errors : sum local = 1.0208e-11, global = 6.86982e-13, cumulative = 5.78913e-06
smoothSolver:  Solving for epsilon, Initial residual = 0.000227201, Final residual = 1.11224e-07, No Iterations 1
smoothSolver:  Solving for k, Initial residual = 0.0145255, Final residual = 2.01297e-07, No Iterations 2
ExecutionTime = 0.06 s  ClockTime = 0 s

Courant Number mean: 0.00190697 max: 0.997334
Interface Courant Number mean: 0.000735117 max: 0.997334
deltaT = 1.64885e-05
Time = 0.00020476

PIMPLE: iteration 1
smoothSolver:  Solving for alpha.upper, Initial residual = 0.015618, Final residual = 1.80531e-11, No Iterations 2
Phase-1 volume fraction = 0.0020428  Min(alpha.upper) = 0  Max(alpha.upper) = 1
MULES: Correcting alpha.upper
MULES: Correcting alpha.upper
Phase-1 volume fraction = 0.00203497  Min(alpha.upper) = -8.09095e-09  Max(alpha.upper) = 1
GAMG:  Solving for p_rgh, Initial residual = 0.018734, Final residual = 8.83151e-05, No Iterations 3
time step continuity errors : sum local = 1.98306e-07, global = 1.93469e-07, cumulative = 5.9826e-06
GAMG:  Solving for p_rgh, Initial residual = 0.00228652, Final residual = 5.92834e-06, No Iterations 3
time step continuity errors : sum local = 1.33507e-08, global = 1.58648e-09, cumulative = 5.98419e-06
GAMG:  Solving for p_rgh, Initial residual = 0.000431787, Final residual = 3.04343e-09, No Iterations 10
time step continuity errors : sum local = 6.84299e-12, global = -4.9059e-13, cumulative = 5.98419e-06
smoothSolver:  Solving for epsilon, Initial residual = 0.000239085, Final residual = 1.20103e-07, No Iterations 1
smoothSolver:  Solving for k, Initial residual = 0.015121, Final residual = 1.29542e-07, No Iterations 2
ExecutionTime = 0.06 s  ClockTime = 0 s

Courant Number mean: 0.00193347 max: 0.993323
Interface Courant Number mean: 0.000736099 max: 0.993323
deltaT = 1.65984e-05
Time = 0.000221358

PIMPLE: iteration 1
smoothSolver:  Solving for alpha.upper, Initial residual = 0.0146281, Final residual = 1.95422e-11, No Iterations 2
Phase-1 volume fraction = 0.00221528  Min(alpha.upper) = 0  Max(alpha.upper) = 1
MULES: Correcting alpha.upper
MULES: Correcting alpha.upper
Phase-1 volume fraction = 0.00220734  Min(alpha.upper) = -1.10227e-08  Max(alpha.upper) = 1
GAMG:  Solving for p_rgh, Initial residual = 0.0154638, Final residual = 7.89093e-05, No Iterations 3
time step continuity errors : sum local = 1.79951e-07, global = 1.78123e-07, cumulative = 6.16231e-06
GAMG:  Solving for p_rgh, Initial residual = 0.00156321, Final residual = 5.95846e-06, No Iterations 3
time step continuity errors : sum local = 1.35638e-08, global = 3.73534e-09, cumulative = 6.16604e-06
GAMG:  Solving for p_rgh, Initial residual = 0.000164711, Final residual = 1.96999e-09, No Iterations 10
time step continuity errors : sum local = 4.47964e-12, global = -3.93224e-13, cumulative = 6.16604e-06
smoothSolver:  Solving for epsilon, Initial residual = 0.000329721, Final residual = 1.91949e-07, No Iterations 1
smoothSolver:  Solving for k, Initial residual = 0.0155857, Final residual = 1.04777e-07, No Iterations 2
ExecutionTime = 0.06 s  ClockTime = 0 s

Courant Number mean: 0.00196454 max: 0.989881
Interface Courant Number mean: 0.000738146 max: 0.989881
deltaT = 1.67661e-05
Time = 0.000238125

PIMPLE: iteration 1
smoothSolver:  Solving for alpha.upper, Initial residual = 0.0137559, Final residual = 2.17846e-11, No Iterations 2
Phase-1 volume fraction = 0.00238886  Min(alpha.upper) = 0  Max(alpha.upper) = 1
MULES: Correcting alpha.upper
MULES: Correcting alpha.upper
Phase-1 volume fraction = 0.00238087  Min(alpha.upper) = -1.43755e-08  Max(alpha.upper) = 1
GAMG:  Solving for p_rgh, Initial residual = 0.0134755, Final residual = 6.07735e-05, No Iterations 3
time step continuity errors : sum local = 1.40808e-07, global = 1.38824e-07, cumulative = 6.30487e-06
GAMG:  Solving for p_rgh, Initial residual = 0.00122596, Final residual = 5.47432e-06, No Iterations 3
time step continuity errors : sum local = 1.26533e-08, global = 1.85418e-09, cumulative = 6.30672e-06
GAMG:  Solving for p_rgh, Initial residual = 0.000187619, Final residual = 2.34716e-09, No Iterations 10
time step continuity errors : sum local = 5.42173e-12, global = -5.23081e-13, cumulative = 6.30672e-06
smoothSolver:  Solving for epsilon, Initial residual = 0.000386634, Final residual = 2.57155e-07, No Iterations 1
smoothSolver:  Solving for k, Initial residual = 0.0156173, Final residual = 1.061e-07, No Iterations 2
ExecutionTime = 0.07 s  ClockTime = 0 s

Courant Number mean: 0.00199988 max: 0.987049
Interface Courant Number mean: 0.000741162 max: 0.987049
deltaT = 1.69836e-05
Time = 0.000255108

PIMPLE: iteration 1
smoothSolver:  Solving for alpha.upper, Initial residual = 0.0129776, Final residual = 2.48561e-11, No Iterations 2
Phase-1 volume fraction = 0.00256393  Min(alpha.upper) = 0  Max(alpha.upper) = 1
MULES: Correcting alpha.upper
MULES: Correcting alpha.upper
Phase-1 volume fraction = 0.00255594  Min(alpha.upper) = -1.80499e-08  Max(alpha.upper) = 1
GAMG:  Solving for p_rgh, Initial residual = 0.0157088, Final residual = 4.90536e-05, No Iterations 3
time step continuity errors : sum local = 1.15791e-07, global = 1.13338e-07, cumulative = 6.42006e-06
GAMG:  Solving for p_rgh, Initial residual = 0.0010045, Final residual = 5.28573e-06, No Iterations 3
time step continuity errors : sum local = 1.24269e-08, global = 1.03354e-09, cumulative = 6.42109e-06
GAMG:  Solving for p_rgh, Initial residual = 0.000312347, Final residual = 2.98532e-09, No Iterations 10
time step continuity errors : sum local = 7.01643e-12, global = -8.17271e-13, cumulative = 6.42109e-06
smoothSolver:  Solving for epsilon, Initial residual = 0.000432461, Final residual = 3.29948e-07, No Iterations 1
smoothSolver:  Solving for k, Initial residual = 0.0153487, Final residual = 1.30007e-07, No Iterations 2
ExecutionTime = 0.07 s  ClockTime = 0 s

Courant Number mean: 0.00203941 max: 0.984849
Interface Courant Number mean: 0.000745032 max: 0.984849
deltaT = 1.72426e-05
Time = 0.000272351

PIMPLE: iteration 1
smoothSolver:  Solving for alpha.upper, Initial residual = 0.0122781, Final residual = 2.89045e-11, No Iterations 2
Phase-1 volume fraction = 0.00274077  Min(alpha.upper) = 0  Max(alpha.upper) = 1
MULES: Correcting alpha.upper
MULES: Correcting alpha.upper
Phase-1 volume fraction = 0.00273278  Min(alpha.upper) = -2.19571e-08  Max(alpha.upper) = 1
GAMG:  Solving for p_rgh, Initial residual = 0.0173338, Final residual = 0.000149143, No Iterations 2
time step continuity errors : sum local = 3.58973e-07, global = 1.84334e-07, cumulative = 6.60543e-06
GAMG:  Solving for p_rgh, Initial residual = 0.00113825, Final residual = 5.59363e-06, No Iterations 3
time step continuity errors : sum local = 1.33909e-08, global = 8.11664e-09, cumulative = 6.61354e-06
GAMG:  Solving for p_rgh, Initial residual = 0.000397894, Final residual = 3.9556e-09, No Iterations 10
time step continuity errors : sum local = 9.46603e-12, global = -1.13511e-12, cumulative = 6.61354e-06
smoothSolver:  Solving for epsilon, Initial residual = 0.000473302, Final residual = 4.08903e-07, No Iterations 1
smoothSolver:  Solving for k, Initial residual = 0.0145682, Final residual = 1.42396e-07, No Iterations 2
ExecutionTime = 0.08 s  ClockTime = 0 s

Courant Number mean: 0.00208289 max: 0.983172
Interface Courant Number mean: 0.000749551 max: 0.983172
deltaT = 1.75344e-05
Time = 0.000289885

PIMPLE: iteration 1
smoothSolver:  Solving for alpha.upper, Initial residual = 0.011645, Final residual = 3.41136e-11, No Iterations 2
Phase-1 volume fraction = 0.00291949  Min(alpha.upper) = 0  Max(alpha.upper) = 1
MULES: Correcting alpha.upper
MULES: Correcting alpha.upper
Phase-1 volume fraction = 0.00291152  Min(alpha.upper) = -2.58543e-08  Max(alpha.upper) = 1
GAMG:  Solving for p_rgh, Initial residual = 0.0183719, Final residual = 0.000146316, No Iterations 2
time step continuity errors : sum local = 3.58808e-07, global = 5.94126e-08, cumulative = 6.67295e-06
GAMG:  Solving for p_rgh, Initial residual = 0.0012633, Final residual = 5.60324e-06, No Iterations 3
time step continuity errors : sum local = 1.36337e-08, global = 4.0058e-09, cumulative = 6.67696e-06
GAMG:  Solving for p_rgh, Initial residual = 0.000468389, Final residual = 4.26466e-09, No Iterations 10
time step continuity errors : sum local = 1.03772e-11, global = -1.37066e-12, cumulative = 6.67696e-06
smoothSolver:  Solving for epsilon, Initial residual = 0.000508945, Final residual = 4.85988e-07, No Iterations 1
smoothSolver:  Solving for k, Initial residual = 0.0133958, Final residual = 1.42515e-07, No Iterations 2
ExecutionTime = 0.08 s  ClockTime = 0 s

Courant Number mean: 0.00212986 max: 0.981703
Interface Courant Number mean: 0.000754408 max: 0.981703
deltaT = 1.78556e-05
Time = 0.000307741

PIMPLE: iteration 1
smoothSolver:  Solving for alpha.upper, Initial residual = 0.0110724, Final residual = 4.07422e-11, No Iterations 2
Phase-1 volume fraction = 0.00310023  Min(alpha.upper) = 0  Max(alpha.upper) = 1
MULES: Correcting alpha.upper
MULES: Correcting alpha.upper
Phase-1 volume fraction = 0.00309228  Min(alpha.upper) = -2.92062e-08  Max(alpha.upper) = 1
GAMG:  Solving for p_rgh, Initial residual = 0.0178016, Final residual = 0.000149507, No Iterations 2
time step continuity errors : sum local = 3.73302e-07, global = -1.03337e-07, cumulative = 6.57362e-06
GAMG:  Solving for p_rgh, Initial residual = 0.00140173, Final residual = 6.26634e-06, No Iterations 3
time step continuity errors : sum local = 1.55199e-08, global = -1.8276e-09, cumulative = 6.57179e-06
GAMG:  Solving for p_rgh, Initial residual = 0.000525397, Final residual = 4.37242e-09, No Iterations 10
time step continuity errors : sum local = 1.08344e-11, global = -1.49444e-12, cumulative = 6.57179e-06
smoothSolver:  Solving for epsilon, Initial residual = 0.00053738, Final residual = 5.51881e-07, No Iterations 1
smoothSolver:  Solving for k, Initial residual = 0.0120128, Final residual = 1.32575e-07, No Iterations 2
ExecutionTime = 0.1 s  ClockTime = 0 s

Courant Number mean: 0.00218029 max: 0.980419
Interface Courant Number mean: 0.000759551 max: 0.980419
deltaT = 1.8209e-05
Time = 0.00032595

PIMPLE: iteration 1
smoothSolver:  Solving for alpha.upper, Initial residual = 0.010554, Final residual = 4.92926e-11, No Iterations 2
Phase-1 volume fraction = 0.00328313  Min(alpha.upper) = 0  Max(alpha.upper) = 1
MULES: Correcting alpha.upper
MULES: Correcting alpha.upper
Phase-1 volume fraction = 0.00327519  Min(alpha.upper) = -3.08846e-08  Max(alpha.upper) = 1
GAMG:  Solving for p_rgh, Initial residual = 0.0177692, Final residual = 0.000127959, No Iterations 2
time step continuity errors : sum local = 3.26135e-07, global = -5.60837e-08, cumulative = 6.51571e-06
GAMG:  Solving for p_rgh, Initial residual = 0.00150395, Final residual = 5.53328e-06, No Iterations 3
time step continuity errors : sum local = 1.39735e-08, global = -9.96882e-10, cumulative = 6.51471e-06
GAMG:  Solving for p_rgh, Initial residual = 0.00057158, Final residual = 4.35578e-09, No Iterations 10
time step continuity errors : sum local = 1.10052e-11, global = -1.44595e-12, cumulative = 6.51471e-06
smoothSolver:  Solving for epsilon, Initial residual = 0.00055646, Final residual = 5.99284e-07, No Iterations 1
smoothSolver:  Solving for k, Initial residual = 0.0105562, Final residual = 1.16381e-07, No Iterations 2
ExecutionTime = 0.1 s  ClockTime = 0 s

Courant Number mean: 0.00223493 max: 0.979443
Interface Courant Number mean: 0.000765111 max: 0.979443
deltaT = 1.85906e-05
Time = 0.00034454

PIMPLE: iteration 1
smoothSolver:  Solving for alpha.upper, Initial residual = 0.0100846, Final residual = 6.00618e-11, No Iterations 2
Phase-1 volume fraction = 0.00346835  Min(alpha.upper) = 0  Max(alpha.upper) = 1
MULES: Correcting alpha.upper
MULES: Correcting alpha.upper
Phase-1 volume fraction = 0.00346043  Min(alpha.upper) = -2.77723e-08  Max(alpha.upper) = 1
GAMG:  Solving for p_rgh, Initial residual = 0.0175402, Final residual = 0.000134159, No Iterations 2
time step continuity errors : sum local = 3.4919e-07, global = -1.09573e-07, cumulative = 6.40514e-06
GAMG:  Solving for p_rgh, Initial residual = 0.00160125, Final residual = 6.29671e-06, No Iterations 3
time step continuity errors : sum local = 1.62279e-08, global = -1.558e-09, cumulative = 6.40358e-06
GAMG:  Solving for p_rgh, Initial residual = 0.000606015, Final residual = 4.76411e-09, No Iterations 10
time step continuity errors : sum local = 1.22855e-11, global = -1.70202e-12, cumulative = 6.40358e-06
smoothSolver:  Solving for epsilon, Initial residual = 0.000564429, Final residual = 6.23425e-07, No Iterations 1
smoothSolver:  Solving for k, Initial residual = 0.00911715, Final residual = 9.76143e-08, No Iterations 2
ExecutionTime = 0.11 s  ClockTime = 0 s

Courant Number mean: 0.00229314 max: 0.978606
Interface Courant Number mean: 0.000770993 max: 0.978606
deltaT = 1.8996e-05
Time = 0.000363536

PIMPLE: iteration 1
smoothSolver:  Solving for alpha.upper, Initial residual = 0.00965429, Final residual = 7.35796e-11, No Iterations 2
Phase-1 volume fraction = 0.003656  Min(alpha.upper) = 0  Max(alpha.upper) = 1
MULES: Correcting alpha.upper
MULES: Correcting alpha.upper
Phase-1 volume fraction = 0.00364811  Min(alpha.upper) = -9.12562e-09  Max(alpha.upper) = 1
GAMG:  Solving for p_rgh, Initial residual = 0.0178032, Final residual = 0.000125178, No Iterations 2
time step continuity errors : sum local = 3.33018e-07, global = -8.21333e-08, cumulative = 6.32144e-06
GAMG:  Solving for p_rgh, Initial residual = 0.00166255, Final residual = 6.12479e-06, No Iterations 3
time step continuity errors : sum local = 1.61241e-08, global = -1.19277e-09, cumulative = 6.32025e-06
GAMG:  Solving for p_rgh, Initial residual = 0.000628467, Final residual = 4.85879e-09, No Iterations 10
time step continuity errors : sum local = 1.27988e-11, global = -1.77157e-12, cumulative = 6.32025e-06
smoothSolver:  Solving for epsilon, Initial residual = 0.000560495, Final residual = 6.23003e-07, No Iterations 1
smoothSolver:  Solving for k, Initial residual = 0.00775426, Final residual = 7.89618e-08, No Iterations 2
ExecutionTime = 0.11 s  ClockTime = 0 s

Courant Number mean: 0.00235458 max: 0.977633
Interface Courant Number mean: 0.000777029 max: 0.977633
deltaT = 1.94272e-05
Time = 0.000382963

PIMPLE: iteration 1
smoothSolver:  Solving for alpha.upper, Initial residual = 0.00926062, Final residual = 9.02742e-11, No Iterations 2
Phase-1 volume fraction = 0.00384625  Min(alpha.upper) = 0  Max(alpha.upper) = 1
MULES: Correcting alpha.upper
MULES: Correcting alpha.upper
Phase-1 volume fraction = 0.00383842  Min(alpha.upper) = -8.98656e-12  Max(alpha.upper) = 1
GAMG:  Solving for p_rgh, Initial residual = 0.0177013, Final residual = 0.000123162, No Iterations 2
time step continuity errors : sum local = 3.3525e-07, global = -1.37351e-07, cumulative = 6.1829e-06
GAMG:  Solving for p_rgh, Initial residual = 0.00171729, Final residual = 6.28728e-06, No Iterations 3
time step continuity errors : sum local = 1.69398e-08, global = -3.88304e-09, cumulative = 6.17902e-06
GAMG:  Solving for p_rgh, Initial residual = 0.000643616, Final residual = 4.56865e-09, No Iterations 10
time step continuity errors : sum local = 1.23181e-11, global = -1.43621e-12, cumulative = 6.17902e-06
smoothSolver:  Solving for epsilon, Initial residual = 0.000544622, Final residual = 6.00008e-07, No Iterations 1
smoothSolver:  Solving for k, Initial residual = 0.00649772, Final residual = 6.21951e-08, No Iterations 2
ExecutionTime = 0.11 s  ClockTime = 0 s

Courant Number mean: 0.00242001 max: 0.9767
Interface Courant Number mean: 0.000783365 max: 0.9767
deltaT = 1.98866e-05
Time = 0.00040285

PIMPLE: iteration 1
smoothSolver:  Solving for alpha.upper, Initial residual = 0.00889943, Final residual = 1.11013e-10, No Iterations 2
Phase-1 volume fraction = 0.00403927  Min(alpha.upper) = 0  Max(alpha.upper) = 1
MULES: Correcting alpha.upper
MULES: Correcting alpha.upper
Phase-1 volume fraction = 0.00403154  Min(alpha.upper) = -1.32408e-11  Max(alpha.upper) = 1
GAMG:  Solving for p_rgh, Initial residual = 0.0177486, Final residual = 0.000120866, No Iterations 2
time step continuity errors : sum local = 3.37433e-07, global = -1.2626e-07, cumulative = 6.05275e-06
GAMG:  Solving for p_rgh, Initial residual = 0.00175543, Final residual = 6.20085e-06, No Iterations 3
time step continuity errors : sum local = 1.71365e-08, global = -2.91607e-09, cumulative = 6.04984e-06
GAMG:  Solving for p_rgh, Initial residual = 0.00065213, Final residual = 4.56008e-09, No Iterations 10
time step continuity errors : sum local = 1.2611e-11, global = -1.41198e-12, cumulative = 6.04984e-06
smoothSolver:  Solving for epsilon, Initial residual = 0.000517839, Final residual = 5.58357e-07, No Iterations 1
smoothSolver:  Solving for k, Initial residual = 0.00535469, Final residual = 4.83053e-08, No Iterations 2
ExecutionTime = 0.12 s  ClockTime = 0 s

Courant Number mean: 0.00248963 max: 0.975918
Interface Courant Number mean: 0.000790122 max: 0.975918
deltaT = 2.03768e-05
Time = 0.000423227

PIMPLE: iteration 1
smoothSolver:  Solving for alpha.upper, Initial residual = 0.00856842, Final residual = 1.36511e-10, No Iterations 2
Phase-1 volume fraction = 0.00423531  Min(alpha.upper) = 0  Max(alpha.upper) = 1
MULES: Correcting alpha.upper
MULES: Correcting alpha.upper
Phase-1 volume fraction = 0.00422769  Min(alpha.upper) = -1.94388e-11  Max(alpha.upper) = 1
GAMG:  Solving for p_rgh, Initial residual = 0.0177427, Final residual = 0.00012154, No Iterations 2
time step continuity errors : sum local = 3.48665e-07, global = -1.45896e-07, cumulative = 5.90394e-06
GAMG:  Solving for p_rgh, Initial residual = 0.00178829, Final residual = 6.29428e-06, No Iterations 3
time step continuity errors : sum local = 1.78725e-08, global = -3.1184e-09, cumulative = 5.90082e-06
GAMG:  Solving for p_rgh, Initial residual = 0.000657278, Final residual = 4.55038e-09, No Iterations 10
time step continuity errors : sum local = 1.29303e-11, global = -1.40883e-12, cumulative = 5.90082e-06
smoothSolver:  Solving for epsilon, Initial residual = 0.000481512, Final residual = 5.0255e-07, No Iterations 1
smoothSolver:  Solving for k, Initial residual = 0.00433807, Final residual = 3.72139e-08, No Iterations 2
ExecutionTime = 0.12 s  ClockTime = 0 s

Courant Number mean: 0.00256399 max: 0.975407
Interface Courant Number mean: 0.000797432 max: 0.975407
deltaT = 2.08832e-05
Time = 0.00044411

PIMPLE: iteration 1
smoothSolver:  Solving for alpha.upper, Initial residual = 0.00825942, Final residual = 1.66995e-10, No Iterations 2
Phase-1 volume fraction = 0.00443444  Min(alpha.upper) = 0  Max(alpha.upper) = 1
MULES: Correcting alpha.upper
MULES: Correcting alpha.upper
Phase-1 volume fraction = 0.00442699  Min(alpha.upper) = -2.73498e-11  Max(alpha.upper) = 1
GAMG:  Solving for p_rgh, Initial residual = 0.017805, Final residual = 0.000121087, No Iterations 2
time step continuity errors : sum local = 3.57054e-07, global = -1.42627e-07, cumulative = 5.75819e-06
GAMG:  Solving for p_rgh, Initial residual = 0.00181025, Final residual = 6.00753e-06, No Iterations 3
time step continuity errors : sum local = 1.7533e-08, global = -3.48403e-09, cumulative = 5.75471e-06
GAMG:  Solving for p_rgh, Initial residual = 0.000655636, Final residual = 4.18782e-09, No Iterations 10
time step continuity errors : sum local = 1.22314e-11, global = -8.84814e-13, cumulative = 5.75471e-06
smoothSolver:  Solving for epsilon, Initial residual = 0.000436957, Final residual = 4.36147e-07, No Iterations 1
smoothSolver:  Solving for k, Initial residual = 0.00433698, Final residual = 3.59874e-08, No Iterations 2
ExecutionTime = 0.13 s  ClockTime = 0 s

Courant Number mean: 0.00264118 max: 0.974342
Interface Courant Number mean: 0.000804656 max: 0.974342
deltaT = 2.14249e-05
Time = 0.000465535

PIMPLE: iteration 1
smoothSolver:  Solving for alpha.upper, Initial residual = 0.00797893, Final residual = 2.03505e-10, No Iterations 2
Phase-1 volume fraction = 0.00463696  Min(alpha.upper) = 0  Max(alpha.upper) = 1
MULES: Correcting alpha.upper
MULES: Correcting alpha.upper
Phase-1 volume fraction = 0.00462972  Min(alpha.upper) = -2.94964e-11  Max(alpha.upper) = 1
GAMG:  Solving for p_rgh, Initial residual = 0.0179102, Final residual = 0.000122871, No Iterations 2
time step continuity errors : sum local = 3.73017e-07, global = -1.64075e-07, cumulative = 5.59063e-06
GAMG:  Solving for p_rgh, Initial residual = 0.00183466, Final residual = 6.21217e-06, No Iterations 3
time step continuity errors : sum local = 1.86562e-08, global = -3.56835e-09, cumulative = 5.58707e-06
GAMG:  Solving for p_rgh, Initial residual = 0.00065386, Final residual = 4.27728e-09, No Iterations 10
time step continuity errors : sum local = 1.28553e-11, global = -1.21082e-12, cumulative = 5.58707e-06
smoothSolver:  Solving for epsilon, Initial residual = 0.000386302, Final residual = 3.64312e-07, No Iterations 1
smoothSolver:  Solving for k, Initial residual = 0.00428759, Final residual = 3.78025e-08, No Iterations 2
ExecutionTime = 0.13 s  ClockTime = 0 s

Courant Number mean: 0.00272363 max: 0.973547
Interface Courant Number mean: 0.000812521 max: 0.973547
deltaT = 2.20055e-05
Time = 0.000487541

PIMPLE: iteration 1
smoothSolver:  Solving for alpha.upper, Initial residual = 0.00772547, Final residual = 2.46643e-10, No Iterations 2
Phase-1 volume fraction = 0.0048432  Min(alpha.upper) = 0  Max(alpha.upper) = 1
MULES: Correcting alpha.upper
MULES: Correcting alpha.upper
Phase-1 volume fraction = 0.0048362  Min(alpha.upper) = -3.38474e-11  Max(alpha.upper) = 1
GAMG:  Solving for p_rgh, Initial residual = 0.0178983, Final residual = 0.000125588, No Iterations 2
time step continuity errors : sum local = 3.93072e-07, global = -1.94762e-07, cumulative = 5.3923e-06
GAMG:  Solving for p_rgh, Initial residual = 0.00185853, Final residual = 6.25374e-06, No Iterations 3
time step continuity errors : sum local = 1.93561e-08, global = -4.48602e-09, cumulative = 5.38782e-06
GAMG:  Solving for p_rgh, Initial residual = 0.000651478, Final residual = 4.23329e-09, No Iterations 10
time step continuity errors : sum local = 1.31133e-11, global = -1.19427e-12, cumulative = 5.38782e-06
smoothSolver:  Solving for epsilon, Initial residual = 0.000331997, Final residual = 2.90896e-07, No Iterations 1
smoothSolver:  Solving for k, Initial residual = 0.0042059, Final residual = 3.93568e-08, No Iterations 2
ExecutionTime = 0.13 s  ClockTime = 0 s

Courant Number mean: 0.00281303 max: 0.973128
Interface Courant Number mean: 0.000821682 max: 0.973128
deltaT = 2.26084e-05
Time = 0.000510149

PIMPLE: iteration 1
smoothSolver:  Solving for alpha.upper, Initial residual = 0.00749149, Final residual = 2.95735e-10, No Iterations 2
Phase-1 volume fraction = 0.00505332  Min(alpha.upper) = 0  Max(alpha.upper) = 1
MULES: Correcting alpha.upper
MULES: Correcting alpha.upper
Phase-1 volume fraction = 0.0050466  Min(alpha.upper) = -3.66507e-11  Max(alpha.upper) = 1
GAMG:  Solving for p_rgh, Initial residual = 0.0177233, Final residual = 0.000127907, No Iterations 2
time step continuity errors : sum local = 4.1281e-07, global = -2.04643e-07, cumulative = 5.18317e-06
GAMG:  Solving for p_rgh, Initial residual = 0.00187484, Final residual = 6.24791e-06, No Iterations 3
time step continuity errors : sum local = 1.99392e-08, global = -4.42295e-09, cumulative = 5.17875e-06
GAMG:  Solving for p_rgh, Initial residual = 0.000644923, Final residual = 4.10302e-09, No Iterations 10
time step continuity errors : sum local = 1.31049e-11, global = -1.12438e-12, cumulative = 5.17875e-06
smoothSolver:  Solving for epsilon, Initial residual = 0.000275759, Final residual = 2.18267e-07, No Iterations 1
smoothSolver:  Solving for k, Initial residual = 0.0040973, Final residual = 4.0872e-08, No Iterations 2
ExecutionTime = 0.15 s  ClockTime = 0 s

Courant Number mean: 0.00290813 max: 0.972324
Interface Courant Number mean: 0.000861034 max: 0.972324
deltaT = 2.32456e-05
Time = 0.000533395

PIMPLE: iteration 1
smoothSolver:  Solving for alpha.upper, Initial residual = 0.00728042, Final residual = 3.5084e-10, No Iterations 2
Phase-1 volume fraction = 0.00526761  Min(alpha.upper) = 0  Max(alpha.upper) = 1
MULES: Correcting alpha.upper
MULES: Correcting alpha.upper
Phase-1 volume fraction = 0.0052612  Min(alpha.upper) = -5.57417e-11  Max(alpha.upper) = 1
GAMG:  Solving for p_rgh, Initial residual = 0.0176328, Final residual = 0.000132916, No Iterations 2
time step continuity errors : sum local = 4.42831e-07, global = -2.29064e-07, cumulative = 4.94968e-06
GAMG:  Solving for p_rgh, Initial residual = 0.00189304, Final residual = 6.42068e-06, No Iterations 3
time step continuity errors : sum local = 2.11447e-08, global = -4.54893e-09, cumulative = 4.94514e-06
GAMG:  Solving for p_rgh, Initial residual = 0.000637372, Final residual = 3.99264e-09, No Iterations 10
time step continuity errors : sum local = 1.31597e-11, global = -1.0207e-12, cumulative = 4.94513e-06
smoothSolver:  Solving for epsilon, Initial residual = 0.000219216, Final residual = 1.48854e-07, No Iterations 1
smoothSolver:  Solving for k, Initial residual = 0.00402305, Final residual = 4.46461e-08, No Iterations 2
ExecutionTime = 0.16 s  ClockTime = 0 s

Courant Number mean: 0.00300894 max: 0.971609
Interface Courant Number mean: 0.000873557 max: 0.971609
deltaT = 2.392e-05
Time = 0.000557315

PIMPLE: iteration 1
smoothSolver:  Solving for alpha.upper, Initial residual = 0.00709063, Final residual = 4.10802e-10, No Iterations 2
Phase-1 volume fraction = 0.00548642  Min(alpha.upper) = 0  Max(alpha.upper) = 1
MULES: Correcting alpha.upper
MULES: Correcting alpha.upper
Phase-1 volume fraction = 0.00548033  Min(alpha.upper) = -8.93428e-11  Max(alpha.upper) = 1
GAMG:  Solving for p_rgh, Initial residual = 0.0176721, Final residual = 0.000138454, No Iterations 2
time step continuity errors : sum local = 4.76618e-07, global = -2.56558e-07, cumulative = 4.68858e-06
GAMG:  Solving for p_rgh, Initial residual = 0.00191634, Final residual = 6.6417e-06, No Iterations 3
time step continuity errors : sum local = 2.25914e-08, global = -4.64711e-09, cumulative = 4.68393e-06
GAMG:  Solving for p_rgh, Initial residual = 0.000628901, Final residual = 3.93004e-09, No Iterations 10
time step continuity errors : sum local = 1.33794e-11, global = -9.87167e-13, cumulative = 4.68393e-06
smoothSolver:  Solving for epsilon, Initial residual = 0.000209491, Final residual = 1.24579e-07, No Iterations 1
smoothSolver:  Solving for k, Initial residual = 0.00447603, Final residual = 4.85587e-08, No Iterations 2
ExecutionTime = 0.16 s  ClockTime = 0 s

Courant Number mean: 0.00311603 max: 0.971024
Interface Courant Number mean: 0.000995124 max: 0.971024
deltaT = 2.46229e-05
Time = 0.000581937

PIMPLE: iteration 1
smoothSolver:  Solving for alpha.upper, Initial residual = 0.00691897, Final residual = 4.72781e-10, No Iterations 2
Phase-1 volume fraction = 0.00571  Min(alpha.upper) = 0  Max(alpha.upper) = 1
MULES: Correcting alpha.upper
MULES: Correcting alpha.upper
Phase-1 volume fraction = 0.00570424  Min(alpha.upper) = -1.46756e-10  Max(alpha.upper) = 1
GAMG:  Solving for p_rgh, Initial residual = 0.0177878, Final residual = 0.000143362, No Iterations 2
time step continuity errors : sum local = 5.09949e-07, global = -2.76684e-07, cumulative = 4.40724e-06
GAMG:  Solving for p_rgh, Initial residual = 0.00194225, Final residual = 6.87508e-06, No Iterations 3
time step continuity errors : sum local = 2.41558e-08, global = -4.70854e-09, cumulative = 4.40254e-06
GAMG:  Solving for p_rgh, Initial residual = 0.000618115, Final residual = 4.00745e-09, No Iterations 10
time step continuity errors : sum local = 1.40926e-11, global = -1.24722e-12, cumulative = 4.40254e-06
smoothSolver:  Solving for epsilon, Initial residual = 0.000250655, Final residual = 1.60296e-07, No Iterations 1
smoothSolver:  Solving for k, Initial residual = 0.00487717, Final residual = 5.21249e-08, No Iterations 2
ExecutionTime = 0.16 s  ClockTime = 0 s

Courant Number mean: 0.00322866 max: 0.969995
Interface Courant Number mean: 0.0011382 max: 0.969995
deltaT = 2.53816e-05
Time = 0.000607319

PIMPLE: iteration 1
smoothSolver:  Solving for alpha.upper, Initial residual = 0.00677119, Final residual = 5.35539e-10, No Iterations 2
Phase-1 volume fraction = 0.00593888  Min(alpha.upper) = 0  Max(alpha.upper) = 1
MULES: Correcting alpha.upper
MULES: Correcting alpha.upper
Phase-1 volume fraction = 0.00593347  Min(alpha.upper) = -2.42843e-10  Max(alpha.upper) = 1
GAMG:  Solving for p_rgh, Initial residual = 0.018026, Final residual = 0.000152198, No Iterations 2
time step continuity errors : sum local = 5.60306e-07, global = -3.24487e-07, cumulative = 4.07805e-06
GAMG:  Solving for p_rgh, Initial residual = 0.00197509, Final residual = 7.27136e-06, No Iterations 3
time step continuity errors : sum local = 2.64195e-08, global = -5.9981e-09, cumulative = 4.07205e-06
GAMG:  Solving for p_rgh, Initial residual = 0.00060988, Final residual = 4.06626e-09, No Iterations 10
time step continuity errors : sum local = 1.47875e-11, global = -1.49481e-12, cumulative = 4.07205e-06
smoothSolver:  Solving for epsilon, Initial residual = 0.000287565, Final residual = 1.90284e-07, No Iterations 1
smoothSolver:  Solving for k, Initial residual = 0.00521541, Final residual = 5.57385e-08, No Iterations 2
ExecutionTime = 0.17 s  ClockTime = 0 s

Courant Number mean: 0.00335041 max: 0.969524
Interface Courant Number mean: 0.00121277 max: 0.969524
deltaT = 2.61752e-05
Time = 0.000633494

PIMPLE: iteration 1
smoothSolver:  Solving for alpha.upper, Initial residual = 0.0066329, Final residual = 5.9235e-10, No Iterations 2
Phase-1 volume fraction = 0.00617344  Min(alpha.upper) = 0  Max(alpha.upper) = 1
MULES: Correcting alpha.upper
MULES: Correcting alpha.upper
Phase-1 volume fraction = 0.00616839  Min(alpha.upper) = -4.09604e-10  Max(alpha.upper) = 1
GAMG:  Solving for p_rgh, Initial residual = 0.0178526, Final residual = 0.000157917, No Iterations 2
time step continuity errors : sum local = 6.017e-07, global = -3.5561e-07, cumulative = 3.71644e-06
GAMG:  Solving for p_rgh, Initial residual = 0.00199904, Final residual = 7.44611e-06, No Iterations 3
time step continuity errors : sum local = 2.80021e-08, global = -7.08349e-09, cumulative = 3.70936e-06
GAMG:  Solving for p_rgh, Initial residual = 0.000598869, Final residual = 3.97223e-09, No Iterations 10
time step continuity errors : sum local = 1.4952e-11, global = -1.48759e-12, cumulative = 3.70935e-06
smoothSolver:  Solving for epsilon, Initial residual = 0.000329249, Final residual = 2.37168e-07, No Iterations 1
smoothSolver:  Solving for k, Initial residual = 0.00549742, Final residual = 5.93765e-08, No Iterations 2
ExecutionTime = 0.17 s  ClockTime = 0 s

Courant Number mean: 0.00347862 max: 0.968784
Interface Courant Number mean: 0.00124834 max: 0.968784
deltaT = 2.70057e-05
Time = 0.0006605

PIMPLE: iteration 1
smoothSolver:  Solving for alpha.upper, Initial residual = 0.0065064, Final residual = 6.37602e-10, No Iterations 2
Phase-1 volume fraction = 0.00641411  Min(alpha.upper) = 0  Max(alpha.upper) = 1
MULES: Correcting alpha.upper
MULES: Correcting alpha.upper
Phase-1 volume fraction = 0.00640946  Min(alpha.upper) = -5.87534e-10  Max(alpha.upper) = 1
GAMG:  Solving for p_rgh, Initial residual = 0.0177481, Final residual = 0.000162797, No Iterations 2
time step continuity errors : sum local = 6.4251e-07, global = -3.81514e-07, cumulative = 3.32784e-06
GAMG:  Solving for p_rgh, Initial residual = 0.00201759, Final residual = 7.7839e-06, No Iterations 3
time step continuity errors : sum local = 3.03153e-08, global = -7.20754e-09, cumulative = 3.32063e-06
GAMG:  Solving for p_rgh, Initial residual = 0.000586077, Final residual = 3.99746e-09, No Iterations 10
time step continuity errors : sum local = 1.55831e-11, global = -1.59758e-12, cumulative = 3.32063e-06
smoothSolver:  Solving for epsilon, Initial residual = 0.00037013, Final residual = 2.82576e-07, No Iterations 1
smoothSolver:  Solving for k, Initial residual = 0.00576475, Final residual = 6.31503e-08, No Iterations 2
ExecutionTime = 0.18 s  ClockTime = 0 s

Courant Number mean: 0.00361386 max: 0.967818
Interface Courant Number mean: 0.00128538 max: 0.967818
deltaT = 2.78912e-05
Time = 0.000688391

PIMPLE: iteration 1
smoothSolver:  Solving for alpha.upper, Initial residual = 0.00639428, Final residual = 6.6635e-10, No Iterations 2
Phase-1 volume fraction = 0.0066615  Min(alpha.upper) = 0  Max(alpha.upper) = 1
MULES: Correcting alpha.upper
MULES: Correcting alpha.upper
Phase-1 volume fraction = 0.00665727  Min(alpha.upper) = -7.54684e-10  Max(alpha.upper) = 1
GAMG:  Solving for p_rgh, Initial residual = 0.0177992, Final residual = 0.00016944, No Iterations 2
time step continuity errors : sum local = 6.93671e-07, global = -4.30101e-07, cumulative = 2.89053e-06
GAMG:  Solving for p_rgh, Initial residual = 0.00203552, Final residual = 8.0981e-06, No Iterations 3
time step continuity errors : sum local = 3.26998e-08, global = -9.16759e-09, cumulative = 2.88136e-06
GAMG:  Solving for p_rgh, Initial residual = 0.000573404, Final residual = 3.71771e-09, No Iterations 10
time step continuity errors : sum local = 1.5026e-11, global = -1.21325e-12, cumulative = 2.88136e-06
smoothSolver:  Solving for epsilon, Initial residual = 0.000404547, Final residual = 3.21196e-07, No Iterations 1
smoothSolver:  Solving for k, Initial residual = 0.00602391, Final residual = 6.76469e-08, No Iterations 2
ExecutionTime = 0.18 s  ClockTime = 0 s

Courant Number mean: 0.00375871 max: 0.967159
Interface Courant Number mean: 0.0013247 max: 0.967159
deltaT = 2.88372e-05
Time = 0.000717228

PIMPLE: iteration 1
smoothSolver:  Solving for alpha.upper, Initial residual = 0.00631663, Final residual = 6.72127e-10, No Iterations 2
Phase-1 volume fraction = 0.0069163  Min(alpha.upper) = 0  Max(alpha.upper) = 1
MULES: Correcting alpha.upper
MULES: Correcting alpha.upper
Phase-1 volume fraction = 0.00691251  Min(alpha.upper) = -1.02682e-09  Max(alpha.upper) = 1
GAMG:  Solving for p_rgh, Initial residual = 0.0179437, Final residual = 0.000178381, No Iterations 2
time step continuity errors : sum local = 7.58365e-07, global = -5.02473e-07, cumulative = 2.37889e-06
GAMG:  Solving for p_rgh, Initial residual = 0.00205893, Final residual = 8.56805e-06, No Iterations 3
time step continuity errors : sum local = 3.59092e-08, global = -1.21507e-08, cumulative = 2.36674e-06
GAMG:  Solving for p_rgh, Initial residual = 0.00056135, Final residual = 3.61175e-09, No Iterations 10
time step continuity errors : sum local = 1.51522e-11, global = -1.20947e-12, cumulative = 2.36674e-06
smoothSolver:  Solving for epsilon, Initial residual = 0.000432494, Final residual = 3.53502e-07, No Iterations 1
smoothSolver:  Solving for k, Initial residual = 0.00623913, Final residual = 7.27881e-08, No Iterations 2
ExecutionTime = 0.18 s  ClockTime = 0 s

Courant Number mean: 0.00391455 max: 0.966844
Interface Courant Number mean: 0.00141359 max: 0.966844
deltaT = 2.98141e-05
Time = 0.000747043

PIMPLE: iteration 1
smoothSolver:  Solving for alpha.upper, Initial residual = 0.00623099, Final residual = 6.59728e-10, No Iterations 2
Phase-1 volume fraction = 0.0071789  Min(alpha.upper) = 0  Max(alpha.upper) = 1
MULES: Correcting alpha.upper
MULES: Correcting alpha.upper
Phase-1 volume fraction = 0.00717561  Min(alpha.upper) = -1.45624e-09  Max(alpha.upper) = 1
GAMG:  Solving for p_rgh, Initial residual = 0.0181346, Final residual = 4.23024e-05, No Iterations 3
time step continuity errors : sum local = 1.86617e-07, global = -1.16498e-07, cumulative = 2.25024e-06
GAMG:  Solving for p_rgh, Initial residual = 0.0020649, Final residual = 6.6717e-06, No Iterations 3
time step continuity errors : sum local = 2.90213e-08, global = -7.45128e-09, cumulative = 2.24279e-06
GAMG:  Solving for p_rgh, Initial residual = 0.000544329, Final residual = 3.38804e-09, No Iterations 10
time step continuity errors : sum local = 1.47483e-11, global = -1.16539e-12, cumulative = 2.24279e-06
smoothSolver:  Solving for epsilon, Initial residual = 0.000453487, Final residual = 3.78774e-07, No Iterations 1
smoothSolver:  Solving for k, Initial residual = 0.00640162, Final residual = 7.83261e-08, No Iterations 2
ExecutionTime = 0.19 s  ClockTime = 0 s

Courant Number mean: 0.00407805 max: 0.965873
Interface Courant Number mean: 0.00145922 max: 0.965835
deltaT = 3.08602e-05
Time = 0.000777903

PIMPLE: iteration 1
smoothSolver:  Solving for alpha.upper, Initial residual = 0.00614213, Final residual = 6.23253e-10, No Iterations 2
Phase-1 volume fraction = 0.00745005  Min(alpha.upper) = 0  Max(alpha.upper) = 1
MULES: Correcting alpha.upper
MULES: Correcting alpha.upper
Phase-1 volume fraction = 0.00744731  Min(alpha.upper) = -2.13547e-09  Max(alpha.upper) = 1
GAMG:  Solving for p_rgh, Initial residual = 0.0181092, Final residual = 4.23789e-05, No Iterations 3
time step continuity errors : sum local = 1.94333e-07, global = -1.17749e-07, cumulative = 2.12504e-06
GAMG:  Solving for p_rgh, Initial residual = 0.0020936, Final residual = 6.93585e-06, No Iterations 3
time step continuity errors : sum local = 3.13378e-08, global = -7.90032e-09, cumulative = 2.11714e-06
GAMG:  Solving for p_rgh, Initial residual = 0.000529235, Final residual = 3.30362e-09, No Iterations 10
time step continuity errors : sum local = 1.49375e-11, global = -1.00967e-12, cumulative = 2.11714e-06
smoothSolver:  Solving for epsilon, Initial residual = 0.000470964, Final residual = 4.00234e-07, No Iterations 1
smoothSolver:  Solving for k, Initial residual = 0.00652137, Final residual = 8.46882e-08, No Iterations 2
ExecutionTime = 0.21 s  ClockTime = 0 s

Courant Number mean: 0.00425423 max: 0.965364
Interface Courant Number mean: 0.00150773 max: 0.965254
deltaT = 3.19624e-05
Time = 0.000809865

PIMPLE: iteration 1
smoothSolver:  Solving for alpha.upper, Initial residual = 0.00604506, Final residual = 5.59016e-10, No Iterations 2
Phase-1 volume fraction = 0.0077304  Min(alpha.upper) = 0  Max(alpha.upper) = 1
MULES: Correcting alpha.upper
MULES: Correcting alpha.upper
Phase-1 volume fraction = 0.00772828  Min(alpha.upper) = -3.08542e-09  Max(alpha.upper) = 1
GAMG:  Solving for p_rgh, Initial residual = 0.0183583, Final residual = 4.72737e-05, No Iterations 3
time step continuity errors : sum local = 2.25285e-07, global = -1.57683e-07, cumulative = 1.95945e-06
GAMG:  Solving for p_rgh, Initial residual = 0.00212747, Final residual = 7.20767e-06, No Iterations 3
time step continuity errors : sum local = 3.38282e-08, global = -1.01908e-08, cumulative = 1.94926e-06
GAMG:  Solving for p_rgh, Initial residual = 0.000514534, Final residual = 3.17216e-09, No Iterations 10
time step continuity errors : sum local = 1.48998e-11, global = -8.83937e-13, cumulative = 1.94926e-06
smoothSolver:  Solving for epsilon, Initial residual = 0.000483082, Final residual = 4.18078e-07, No Iterations 1
smoothSolver:  Solving for k, Initial residual = 0.00659647, Final residual = 9.18103e-08, No Iterations 2
ExecutionTime = 0.21 s  ClockTime = 0 s

Courant Number mean: 0.0044423 max: 0.964752
Interface Courant Number mean: 0.00155847 max: 0.964571
deltaT = 3.31247e-05
Time = 0.00084299

PIMPLE: iteration 1
smoothSolver:  Solving for alpha.upper, Initial residual = 0.00593973, Final residual = 4.75108e-10, No Iterations 2
Phase-1 volume fraction = 0.00802068  Min(alpha.upper) = 0  Max(alpha.upper) = 1
MULES: Correcting alpha.upper
MULES: Correcting alpha.upper
Phase-1 volume fraction = 0.00801928  Min(alpha.upper) = -4.63438e-09  Max(alpha.upper) = 1
GAMG:  Solving for p_rgh, Initial residual = 0.0179726, Final residual = 4.44689e-05, No Iterations 3
time step continuity errors : sum local = 2.20396e-07, global = -1.36499e-07, cumulative = 1.81276e-06
GAMG:  Solving for p_rgh, Initial residual = 0.00214819, Final residual = 7.76201e-06, No Iterations 3
time step continuity errors : sum local = 3.78747e-08, global = -1.01859e-08, cumulative = 1.80258e-06
GAMG:  Solving for p_rgh, Initial residual = 0.000497846, Final residual = 3.23245e-09, No Iterations 10
time step continuity errors : sum local = 1.57844e-11, global = -8.4489e-13, cumulative = 1.80258e-06
smoothSolver:  Solving for epsilon, Initial residual = 0.000490636, Final residual = 4.32907e-07, No Iterations 1
smoothSolver:  Solving for k, Initial residual = 0.00662925, Final residual = 9.97121e-08, No Iterations 2
ExecutionTime = 0.21 s  ClockTime = 0 s

Courant Number mean: 0.00464279 max: 0.964032
Interface Courant Number mean: 0.00161141 max: 0.963784
deltaT = 3.43515e-05
Time = 0.000877341

PIMPLE: iteration 1
smoothSolver:  Solving for alpha.upper, Initial residual = 0.00582498, Final residual = 3.82513e-10, No Iterations 2
Phase-1 volume fraction = 0.00832181  Min(alpha.upper) = 0  Max(alpha.upper) = 1
MULES: Correcting alpha.upper
MULES: Correcting alpha.upper
Phase-1 volume fraction = 0.00832137  Min(alpha.upper) = -7.34626e-09  Max(alpha.upper) = 1
GAMG:  Solving for p_rgh, Initial residual = 0.0180822, Final residual = 5.01662e-05, No Iterations 3
time step continuity errors : sum local = 2.58671e-07, global = -1.76844e-07, cumulative = 1.62573e-06
GAMG:  Solving for p_rgh, Initial residual = 0.00217627, Final residual = 8.31849e-06, No Iterations 3
time step continuity errors : sum local = 4.22441e-08, global = -1.28145e-08, cumulative = 1.61292e-06
GAMG:  Solving for p_rgh, Initial residual = 0.000481581, Final residual = 3.08029e-09, No Iterations 10
time step continuity errors : sum local = 1.56545e-11, global = -4.85421e-13, cumulative = 1.61292e-06
smoothSolver:  Solving for epsilon, Initial residual = 0.000493326, Final residual = 4.44624e-07, No Iterations 1
smoothSolver:  Solving for k, Initial residual = 0.00662264, Final residual = 1.08521e-07, No Iterations 2
ExecutionTime = 0.22 s  ClockTime = 0 s

Courant Number mean: 0.00485694 max: 0.963242
Interface Courant Number mean: 0.0014469 max: 0.962933
deltaT = 3.56478e-05
Time = 0.000912989

PIMPLE: iteration 1
smoothSolver:  Solving for alpha.upper, Initial residual = 0.0056676, Final residual = 4.788e-10, No Iterations 2
Phase-1 volume fraction = 0.00863507  Min(alpha.upper) = 0  Max(alpha.upper) = 1
MULES: Correcting alpha.upper
MULES: Correcting alpha.upper
Phase-1 volume fraction = 0.00863636  Min(alpha.upper) = -6.36716e-09  Max(alpha.upper) = 1
GAMG:  Solving for p_rgh, Initial residual = 0.018332, Final residual = 5.04317e-05, No Iterations 3
time step continuity errors : sum local = 2.70855e-07, global = -1.67126e-07, cumulative = 1.44579e-06
GAMG:  Solving for p_rgh, Initial residual = 0.00219032, Final residual = 9.28343e-06, No Iterations 3
time step continuity errors : sum local = 4.90655e-08, global = -1.43238e-08, cumulative = 1.43147e-06
GAMG:  Solving for p_rgh, Initial residual = 0.000464041, Final residual = 3.3727e-09, No Iterations 10
time step continuity errors : sum local = 1.78391e-11, global = -9.62524e-13, cumulative = 1.43147e-06
smoothSolver:  Solving for epsilon, Initial residual = 0.000492008, Final residual = 4.52867e-07, No Iterations 1
smoothSolver:  Solving for k, Initial residual = 0.00657808, Final residual = 1.18258e-07, No Iterations 2
ExecutionTime = 0.22 s  ClockTime = 0 s

Courant Number mean: 0.00508795 max: 0.962373
Interface Courant Number mean: 0.00150155 max: 0.962026
deltaT = 3.70189e-05
Time = 0.000950008

PIMPLE: iteration 1
smoothSolver:  Solving for alpha.upper, Initial residual = 0.00559377, Final residual = 5.19965e-10, No Iterations 2
Phase-1 volume fraction = 0.00896294  Min(alpha.upper) = 0  Max(alpha.upper) = 1
MULES: Correcting alpha.upper
MULES: Correcting alpha.upper
Phase-1 volume fraction = 0.00896741  Min(alpha.upper) = -3.3391e-11  Max(alpha.upper) = 1
GAMG:  Solving for p_rgh, Initial residual = 0.0189778, Final residual = 5.86244e-05, No Iterations 3
time step continuity errors : sum local = 3.27864e-07, global = -2.27949e-07, cumulative = 1.20352e-06
GAMG:  Solving for p_rgh, Initial residual = 0.00221629, Final residual = 1.01494e-05, No Iterations 3
time step continuity errors : sum local = 5.58299e-08, global = -1.92757e-08, cumulative = 1.18424e-06
GAMG:  Solving for p_rgh, Initial residual = 0.000453344, Final residual = 3.44957e-09, No Iterations 10
time step continuity errors : sum local = 1.89904e-11, global = -1.1525e-12, cumulative = 1.18424e-06
smoothSolver:  Solving for epsilon, Initial residual = 0.000486453, Final residual = 4.604e-07, No Iterations 1
smoothSolver:  Solving for k, Initial residual = 0.00649264, Final residual = 1.2878e-07, No Iterations 2
ExecutionTime = 0.23 s  ClockTime = 0 s

Courant Number mean: 0.00533557 max: 0.961474
Interface Courant Number mean: 0.00155859 max: 0.961122
deltaT = 3.85008e-05
Time = 0.000988509

PIMPLE: iteration 1
smoothSolver:  Solving for alpha.upper, Initial residual = 0.00561805, Final residual = 5.76772e-10, No Iterations 2
Phase-1 volume fraction = 0.00930668  Min(alpha.upper) = 0  Max(alpha.upper) = 1
MULES: Correcting alpha.upper
MULES: Correcting alpha.upper
Phase-1 volume fraction = 0.00931036  Min(alpha.upper) = -1.82029e-13  Max(alpha.upper) = 1
GAMG:  Solving for p_rgh, Initial residual = 0.0192813, Final residual = 6.14192e-05, No Iterations 3
time step continuity errors : sum local = 3.58239e-07, global = -2.62422e-07, cumulative = 9.21818e-07
GAMG:  Solving for p_rgh, Initial residual = 0.00225281, Final residual = 1.08024e-05, No Iterations 3
time step continuity errors : sum local = 6.19197e-08, global = -2.29639e-08, cumulative = 8.98854e-07
GAMG:  Solving for p_rgh, Initial residual = 0.000453386, Final residual = 3.34436e-09, No Iterations 10
time step continuity errors : sum local = 1.91856e-11, global = -7.74798e-13, cumulative = 8.98853e-07
smoothSolver:  Solving for epsilon, Initial residual = 0.000477442, Final residual = 4.71151e-07, No Iterations 1
smoothSolver:  Solving for k, Initial residual = 0.00647656, Final residual = 1.40778e-07, No Iterations 2
ExecutionTime = 0.23 s  ClockTime = 0 s

Courant Number mean: 0.00560581 max: 0.961286
Interface Courant Number mean: 0.00116866 max: 0.96092
deltaT = 4.00421e-05
Time = 0.00102855

PIMPLE: iteration 1
smoothSolver:  Solving for alpha.upper, Initial residual = 0.00559532, Final residual = 6.41857e-10, No Iterations 2
Phase-1 volume fraction = 0.00966225  Min(alpha.upper) = 0  Max(alpha.upper) = 1
MULES: Correcting alpha.upper
MULES: Correcting alpha.upper
Phase-1 volume fraction = 0.00966572  Min(alpha.upper) = -2.49825e-13  Max(alpha.upper) = 1
GAMG:  Solving for p_rgh, Initial residual = 0.0192172, Final residual = 6.23839e-05, No Iterations 3
time step continuity errors : sum local = 3.79207e-07, global = -2.35571e-07, cumulative = 6.63283e-07
GAMG:  Solving for p_rgh, Initial residual = 0.00228536, Final residual = 1.21003e-05, No Iterations 3
time step continuity errors : sum local = 7.22843e-08, global = -2.03257e-08, cumulative = 6.42957e-07
GAMG:  Solving for p_rgh, Initial residual = 0.000454932, Final residual = 3.9588e-09, No Iterations 10
time step continuity errors : sum local = 2.36671e-11, global = -1.66776e-12, cumulative = 6.42955e-07
smoothSolver:  Solving for epsilon, Initial residual = 0.000478502, Final residual = 4.82221e-07, No Iterations 1
smoothSolver:  Solving for k, Initial residual = 0.00656467, Final residual = 1.53811e-07, No Iterations 2
ExecutionTime = 0.23 s  ClockTime = 0 s

Courant Number mean: 0.00589188 max: 0.960426
Interface Courant Number mean: 0.000919406 max: 0.960039
deltaT = 4.16778e-05
Time = 0.00107023

PIMPLE: iteration 1
smoothSolver:  Solving for alpha.upper, Initial residual = 0.00554377, Final residual = 7.28742e-10, No Iterations 2
Phase-1 volume fraction = 0.0100316  Min(alpha.upper) = 0  Max(alpha.upper) = 1
MULES: Correcting alpha.upper
MULES: Correcting alpha.upper
Phase-1 volume fraction = 0.010036  Min(alpha.upper) = -3.17326e-13  Max(alpha.upper) = 1
GAMG:  Solving for p_rgh, Initial residual = 0.0195509, Final residual = 6.59636e-05, No Iterations 3
time step continuity errors : sum local = 4.18317e-07, global = -2.55361e-07, cumulative = 3.87595e-07
GAMG:  Solving for p_rgh, Initial residual = 0.00232384, Final residual = 1.32716e-05, No Iterations 3
time step continuity errors : sum local = 8.26843e-08, global = -2.26322e-08, cumulative = 3.64963e-07
GAMG:  Solving for p_rgh, Initial residual = 0.000457601, Final residual = 4.24079e-09, No Iterations 10
time step continuity errors : sum local = 2.64413e-11, global = -2.02075e-12, cumulative = 3.64961e-07
smoothSolver:  Solving for epsilon, Initial residual = 0.00048, Final residual = 4.93055e-07, No Iterations 1
smoothSolver:  Solving for k, Initial residual = 0.00667426, Final residual = 1.6833e-07, No Iterations 2
ExecutionTime = 0.24 s  ClockTime = 0 s

Courant Number mean: 0.00619986 max: 0.959651
Interface Courant Number mean: 0.00096536 max: 0.959263
deltaT = 4.34159e-05
Time = 0.00111364

PIMPLE: iteration 1
smoothSolver:  Solving for alpha.upper, Initial residual = 0.00553851, Final residual = 8.85793e-10, No Iterations 2
Phase-1 volume fraction = 0.0104172  Min(alpha.upper) = 0  Max(alpha.upper) = 1
MULES: Correcting alpha.upper
MULES: Correcting alpha.upper
Phase-1 volume fraction = 0.0104226  Min(alpha.upper) = -3.75299e-13  Max(alpha.upper) = 1
GAMG:  Solving for p_rgh, Initial residual = 0.0198812, Final residual = 6.88656e-05, No Iterations 3
time step continuity errors : sum local = 4.56027e-07, global = -2.70383e-07, cumulative = 9.45774e-08
GAMG:  Solving for p_rgh, Initial residual = 0.0023802, Final residual = 1.45385e-05, No Iterations 3
time step continuity errors : sum local = 9.45519e-08, global = -2.56478e-08, cumulative = 6.89296e-08
GAMG:  Solving for p_rgh, Initial residual = 0.000461696, Final residual = 4.36063e-09, No Iterations 10
time step continuity errors : sum local = 2.83815e-11, global = -2.00593e-12, cumulative = 6.89276e-08
smoothSolver:  Solving for epsilon, Initial residual = 0.000479861, Final residual = 5.03712e-07, No Iterations 1
smoothSolver:  Solving for k, Initial residual = 0.00675716, Final residual = 1.84249e-07, No Iterations 2
ExecutionTime = 0.24 s  ClockTime = 0 s

Courant Number mean: 0.0065319 max: 0.959001
Interface Courant Number mean: 0.000909628 max: 0.75346
deltaT = 4.52651e-05
Time = 0.00115891

PIMPLE: iteration 1
smoothSolver:  Solving for alpha.upper, Initial residual = 0.00556537, Final residual = 1.0554e-09, No Iterations 2
Phase-1 volume fraction = 0.0108202  Min(alpha.upper) = 0  Max(alpha.upper) = 1
MULES: Correcting alpha.upper
MULES: Correcting alpha.upper
Phase-1 volume fraction = 0.0108265  Min(alpha.upper) = -1.51091e-12  Max(alpha.upper) = 1
GAMG:  Solving for p_rgh, Initial residual = 0.0202604, Final residual = 7.31089e-05, No Iterations 3
time step continuity errors : sum local = 5.05979e-07, global = -2.87472e-07, cumulative = -2.18545e-07
GAMG:  Solving for p_rgh, Initial residual = 0.00245731, Final residual = 1.60516e-05, No Iterations 3
time step continuity errors : sum local = 1.09061e-07, global = -2.80049e-08, cumulative = -2.4655e-07
GAMG:  Solving for p_rgh, Initial residual = 0.000467625, Final residual = 4.72186e-09, No Iterations 10
time step continuity errors : sum local = 3.21068e-11, global = -2.47671e-12, cumulative = -2.46552e-07
smoothSolver:  Solving for epsilon, Initial residual = 0.000477481, Final residual = 5.14157e-07, No Iterations 1
smoothSolver:  Solving for k, Initial residual = 0.00681372, Final residual = 2.01696e-07, No Iterations 2
ExecutionTime = 0.25 s  ClockTime = 0 s

Courant Number mean: 0.00689056 max: 0.958514
Interface Courant Number mean: 0.000959559 max: 0.781875
deltaT = 4.71895e-05
Time = 0.0012061

PIMPLE: iteration 1
smoothSolver:  Solving for alpha.upper, Initial residual = 0.00559037, Final residual = 1.22405e-09, No Iterations 2
Phase-1 volume fraction = 0.0112407  Min(alpha.upper) = 0  Max(alpha.upper) = 1
MULES: Correcting alpha.upper
MULES: Correcting alpha.upper
Phase-1 volume fraction = 0.0112479  Min(alpha.upper) = -2.51845e-12  Max(alpha.upper) = 1
GAMG:  Solving for p_rgh, Initial residual = 0.0208905, Final residual = 7.70214e-05, No Iterations 3
time step continuity errors : sum local = 5.56545e-07, global = -2.7732e-07, cumulative = -5.23872e-07
GAMG:  Solving for p_rgh, Initial residual = 0.00254314, Final residual = 1.79688e-05, No Iterations 3
time step continuity errors : sum local = 1.27408e-07, global = -2.86138e-08, cumulative = -5.52485e-07
GAMG:  Solving for p_rgh, Initial residual = 0.000473621, Final residual = 1.94113e-09, No Iterations 11
time step continuity errors : sum local = 1.37739e-11, global = -1.96627e-12, cumulative = -5.52487e-07
smoothSolver:  Solving for epsilon, Initial residual = 0.000472951, Final residual = 5.23326e-07, No Iterations 1
smoothSolver:  Solving for k, Initial residual = 0.0068429, Final residual = 2.20304e-07, No Iterations 2
ExecutionTime = 0.26 s  ClockTime = 0 s

Courant Number mean: 0.00727154 max: 0.957363
Interface Courant Number mean: 0.00122612 max: 0.809302
deltaT = 4.92868e-05
Time = 0.00125539

PIMPLE: iteration 1
smoothSolver:  Solving for alpha.upper, Initial residual = 0.00562034, Final residual = 1.38976e-09, No Iterations 2
Phase-1 volume fraction = 0.0116796  Min(alpha.upper) = 0  Max(alpha.upper) = 1
MULES: Correcting alpha.upper
MULES: Correcting alpha.upper
Phase-1 volume fraction = 0.0116876  Min(alpha.upper) = -2.26307e-12  Max(alpha.upper) = 1
GAMG:  Solving for p_rgh, Initial residual = 0.0220505, Final residual = 8.34354e-05, No Iterations 3
time step continuity errors : sum local = 6.30617e-07, global = -3.26666e-07, cumulative = -8.79154e-07
GAMG:  Solving for p_rgh, Initial residual = 0.00264136, Final residual = 1.99848e-05, No Iterations 3
time step continuity errors : sum local = 1.48034e-07, global = -3.47655e-08, cumulative = -9.13919e-07
GAMG:  Solving for p_rgh, Initial residual = 0.000483661, Final residual = 2.08597e-09, No Iterations 11
time step continuity errors : sum local = 1.54627e-11, global = -2.2347e-12, cumulative = -9.13921e-07
smoothSolver:  Solving for epsilon, Initial residual = 0.000468198, Final residual = 5.33758e-07, No Iterations 1
smoothSolver:  Solving for k, Initial residual = 0.00688164, Final residual = 2.4108e-07, No Iterations 2
ExecutionTime = 0.27 s  ClockTime = 0 s

Courant Number mean: 0.0076912 max: 0.95732
Interface Courant Number mean: 0.00135953 max: 0.837213
deltaT = 5.14727e-05
Time = 0.00130686

PIMPLE: iteration 1
smoothSolver:  Solving for alpha.upper, Initial residual = 0.0056422, Final residual = 1.53111e-09, No Iterations 2
Phase-1 volume fraction = 0.012137  Min(alpha.upper) = 0  Max(alpha.upper) = 1
MULES: Correcting alpha.upper
MULES: Correcting alpha.upper
Phase-1 volume fraction = 0.0121454  Min(alpha.upper) = -2.71595e-13  Max(alpha.upper) = 1
GAMG:  Solving for p_rgh, Initial residual = 0.022763, Final residual = 9.0211e-05, No Iterations 3
time step continuity errors : sum local = 7.11997e-07, global = -3.19054e-07, cumulative = -1.23298e-06
GAMG:  Solving for p_rgh, Initial residual = 0.00273074, Final residual = 2.25021e-05, No Iterations 3
time step continuity errors : sum local = 1.73982e-07, global = -3.4076e-08, cumulative = -1.26705e-06
GAMG:  Solving for p_rgh, Initial residual = 0.000494506, Final residual = 2.29796e-09, No Iterations 11
time step continuity errors : sum local = 1.77796e-11, global = -2.63231e-12, cumulative = -1.26705e-06
smoothSolver:  Solving for epsilon, Initial residual = 0.000461339, Final residual = 5.43898e-07, No Iterations 1
smoothSolver:  Solving for k, Initial residual = 0.00689347, Final residual = 2.63851e-07, No Iterations 2
ExecutionTime = 0.27 s  ClockTime = 0 s

Courant Number mean: 0.00813815 max: 0.956655
Interface Courant Number mean: 0.00157215 max: 0.863951
deltaT = 5.38046e-05
Time = 0.00136066

PIMPLE: iteration 1
smoothSolver:  Solving for alpha.upper, Initial residual = 0.00568471, Final residual = 1.65049e-09, No Iterations 2
Phase-1 volume fraction = 0.0126131  Min(alpha.upper) = 0  Max(alpha.upper) = 1
MULES: Correcting alpha.upper
MULES: Correcting alpha.upper
Phase-1 volume fraction = 0.0126216  Min(alpha.upper) = 0  Max(alpha.upper) = 1
GAMG:  Solving for p_rgh, Initial residual = 0.023199, Final residual = 9.51245e-05, No Iterations 3
time step continuity errors : sum local = 7.84526e-07, global = -4.10549e-07, cumulative = -1.6776e-06
GAMG:  Solving for p_rgh, Initial residual = 0.00282715, Final residual = 2.46478e-05, No Iterations 3
time step continuity errors : sum local = 1.99162e-07, global = -4.38659e-08, cumulative = -1.72147e-06
GAMG:  Solving for p_rgh, Initial residual = 0.000510184, Final residual = 2.52601e-09, No Iterations 11
time step continuity errors : sum local = 2.04262e-11, global = -3.13076e-12, cumulative = -1.72147e-06
smoothSolver:  Solving for epsilon, Initial residual = 0.000453521, Final residual = 5.53899e-07, No Iterations 1
smoothSolver:  Solving for k, Initial residual = 0.00691455, Final residual = 2.90664e-07, No Iterations 2
ExecutionTime = 0.28 s  ClockTime = 0 s

Courant Number mean: 0.00862638 max: 0.956422
Interface Courant Number mean: 0.0018529 max: 0.890213
deltaT = 5.62304e-05
Time = 0.00141689

PIMPLE: iteration 1
smoothSolver:  Solving for alpha.upper, Initial residual = 0.00583842, Final residual = 1.87703e-09, No Iterations 2
Phase-1 volume fraction = 0.0131077  Min(alpha.upper) = 0  Max(alpha.upper) = 1
MULES: Correcting alpha.upper
MULES: Correcting alpha.upper
Phase-1 volume fraction = 0.0131159  Min(alpha.upper) = -3.28903e-10  Max(alpha.upper) = 1
GAMG:  Solving for p_rgh, Initial residual = 0.023926, Final residual = 0.000105251, No Iterations 3
time step continuity errors : sum local = 9.07069e-07, global = -3.41226e-07, cumulative = -2.0627e-06
GAMG:  Solving for p_rgh, Initial residual = 0.0029612, Final residual = 2.80942e-05, No Iterations 3
time step continuity errors : sum local = 2.37223e-07, global = -2.80758e-08, cumulative = -2.09077e-06
GAMG:  Solving for p_rgh, Initial residual = 0.000526021, Final residual = 2.80955e-09, No Iterations 11
time step continuity errors : sum local = 2.37393e-11, global = -3.6991e-12, cumulative = -2.09078e-06
smoothSolver:  Solving for epsilon, Initial residual = 0.000444805, Final residual = 5.62544e-07, No Iterations 1
smoothSolver:  Solving for k, Initial residual = 0.00692267, Final residual = 3.21824e-07, No Iterations 2
ExecutionTime = 0.28 s  ClockTime = 0 s

Courant Number mean: 0.00915236 max: 0.95557
Interface Courant Number mean: 0.00201184 max: 0.914918
deltaT = 5.88173e-05
Time = 0.00147571

PIMPLE: iteration 1
smoothSolver:  Solving for alpha.upper, Initial residual = 0.00599718, Final residual = 2.52408e-09, No Iterations 2
Phase-1 volume fraction = 0.0136213  Min(alpha.upper) = 0  Max(alpha.upper) = 1
MULES: Correcting alpha.upper
MULES: Correcting alpha.upper
Phase-1 volume fraction = 0.0136289  Min(alpha.upper) = -1.743e-09  Max(alpha.upper) = 1
GAMG:  Solving for p_rgh, Initial residual = 0.0254612, Final residual = 0.000117095, No Iterations 3
time step continuity errors : sum local = 1.05496e-06, global = -5.80476e-07, cumulative = -2.67125e-06
GAMG:  Solving for p_rgh, Initial residual = 0.00317241, Final residual = 3.03579e-05, No Iterations 3
time step continuity errors : sum local = 2.6796e-07, global = -4.19785e-08, cumulative = -2.71323e-06
GAMG:  Solving for p_rgh, Initial residual = 0.000548558, Final residual = 3.05426e-09, No Iterations 11
time step continuity errors : sum local = 2.69803e-11, global = -4.29173e-12, cumulative = -2.71324e-06
smoothSolver:  Solving for epsilon, Initial residual = 0.00043654, Final residual = 5.7028e-07, No Iterations 1
smoothSolver:  Solving for k, Initial residual = 0.00691634, Final residual = 3.61476e-07, No Iterations 2
ExecutionTime = 0.29 s  ClockTime = 0 s

Courant Number mean: 0.00972909 max: 0.95519
Interface Courant Number mean: 0.00226021 max: 0.939041
deltaT = 6.1501e-05
Time = 0.00153721

PIMPLE: iteration 1
smoothSolver:  Solving for alpha.upper, Initial residual = 0.00608414, Final residual = 3.20559e-09, No Iterations 2
Phase-1 volume fraction = 0.014154  Min(alpha.upper) = 0  Max(alpha.upper) = 1
MULES: Correcting alpha.upper
MULES: Correcting alpha.upper
Phase-1 volume fraction = 0.0141609  Min(alpha.upper) = -2.39438e-09  Max(alpha.upper) = 1
GAMG:  Solving for p_rgh, Initial residual = 0.0250592, Final residual = 0.0001184, No Iterations 3
time step continuity errors : sum local = 1.11533e-06, global = -3.64549e-07, cumulative = -3.07779e-06
GAMG:  Solving for p_rgh, Initial residual = 0.00334437, Final residual = 1.15857e-05, No Iterations 4
time step continuity errors : sum local = 1.06957e-07, global = 4.39275e-08, cumulative = -3.03386e-06
GAMG:  Solving for p_rgh, Initial residual = 0.000555817, Final residual = 2.27607e-09, No Iterations 11
time step continuity errors : sum local = 2.1022e-11, global = -3.36552e-12, cumulative = -3.03386e-06
smoothSolver:  Solving for epsilon, Initial residual = 0.000428581, Final residual = 5.79063e-07, No Iterations 1
smoothSolver:  Solving for k, Initial residual = 0.00687983, Final residual = 4.11298e-07, No Iterations 2
ExecutionTime = 0.29 s  ClockTime = 0 s

Courant Number mean: 0.010346 max: 0.967067
Interface Courant Number mean: 0.00238964 max: 0.961123
deltaT = 6.35161e-05
Time = 0.00160073

PIMPLE: iteration 1
smoothSolver:  Solving for alpha.upper, Initial residual = 0.00611581, Final residual = 3.61969e-09, No Iterations 2
Phase-1 volume fraction = 0.0147001  Min(alpha.upper) = 0  Max(alpha.upper) = 1
MULES: Correcting alpha.upper
MULES: Correcting alpha.upper
Phase-1 volume fraction = 0.0147058  Min(alpha.upper) = -3.27257e-09  Max(alpha.upper) = 1
GAMG:  Solving for p_rgh, Initial residual = 0.0238693, Final residual = 0.000126963, No Iterations 3
time step continuity errors : sum local = 1.2275e-06, global = 3.85847e-08, cumulative = -2.99528e-06
GAMG:  Solving for p_rgh, Initial residual = 0.00344879, Final residual = 1.39568e-05, No Iterations 4
time step continuity errors : sum local = 1.33112e-07, global = 7.5103e-08, cumulative = -2.92017e-06
GAMG:  Solving for p_rgh, Initial residual = 0.000557434, Final residual = 2.45633e-09, No Iterations 11
time step continuity errors : sum local = 2.34242e-11, global = -3.81472e-12, cumulative = -2.92018e-06
smoothSolver:  Solving for epsilon, Initial residual = 0.000415573, Final residual = 5.73737e-07, No Iterations 1
smoothSolver:  Solving for k, Initial residual = 0.00675686, Final residual = 4.7726e-07, No Iterations 2
ExecutionTime = 0.29 s  ClockTime = 0 s

Courant Number mean: 0.0108747 max: 0.975757
Interface Courant Number mean: 0.0023831 max: 0.96972
deltaT = 6.50528e-05
Time = 0.00166578

PIMPLE: iteration 1
smoothSolver:  Solving for alpha.upper, Initial residual = 0.00602401, Final residual = 3.81891e-09, No Iterations 2
Phase-1 volume fraction = 0.0152558  Min(alpha.upper) = 0  Max(alpha.upper) = 1
MULES: Correcting alpha.upper
MULES: Correcting alpha.upper
Phase-1 volume fraction = 0.015259  Min(alpha.upper) = -7.22903e-14  Max(alpha.upper) = 1
GAMG:  Solving for p_rgh, Initial residual = 0.0236103, Final residual = 0.000135028, No Iterations 3
time step continuity errors : sum local = 1.3317e-06, global = 3.9581e-07, cumulative = -2.52437e-06
GAMG:  Solving for p_rgh, Initial residual = 0.00351058, Final residual = 1.61246e-05, No Iterations 4
time step continuity errors : sum local = 1.57594e-07, global = 9.70317e-08, cumulative = -2.42734e-06
GAMG:  Solving for p_rgh, Initial residual = 0.000556443, Final residual = 2.5635e-09, No Iterations 11
time step continuity errors : sum local = 2.5038e-11, global = -3.99912e-12, cumulative = -2.42734e-06
smoothSolver:  Solving for epsilon, Initial residual = 0.000400374, Final residual = 5.61534e-07, No Iterations 1
smoothSolver:  Solving for k, Initial residual = 0.00668526, Final residual = 5.50842e-07, No Iterations 2
ExecutionTime = 0.3 s  ClockTime = 0 s

Courant Number mean: 0.0113422 max: 0.974734
Interface Courant Number mean: 0.00246395 max: 0.968671
deltaT = 6.66679e-05
Time = 0.00173245

PIMPLE: iteration 1
smoothSolver:  Solving for alpha.upper, Initial residual = 0.0058533, Final residual = 3.99162e-09, No Iterations 2
Phase-1 volume fraction = 0.0158215  Min(alpha.upper) = 0  Max(alpha.upper) = 1
MULES: Correcting alpha.upper
MULES: Correcting alpha.upper
Phase-1 volume fraction = 0.0158249  Min(alpha.upper) = -9.45033e-08  Max(alpha.upper) = 1
GAMG:  Solving for p_rgh, Initial residual = 0.0240623, Final residual = 0.00014444, No Iterations 3
time step continuity errors : sum local = 1.4601e-06, global = 4.42335e-07, cumulative = -1.98501e-06
GAMG:  Solving for p_rgh, Initial residual = 0.00364391, Final residual = 1.78594e-05, No Iterations 4
time step continuity errors : sum local = 1.7886e-07, global = 1.11661e-07, cumulative = -1.87334e-06
GAMG:  Solving for p_rgh, Initial residual = 0.000568424, Final residual = 2.73558e-09, No Iterations 11
time step continuity errors : sum local = 2.73713e-11, global = -4.37572e-12, cumulative = -1.87335e-06
smoothSolver:  Solving for epsilon, Initial residual = 0.000388664, Final residual = 5.66043e-07, No Iterations 1
smoothSolver:  Solving for k, Initial residual = 0.00661335, Final residual = 6.45768e-07, No Iterations 2
ExecutionTime = 0.32 s  ClockTime = 0 s

Courant Number mean: 0.0118408 max: 0.97272
[...]
time step continuity errors : sum local = 6.61683e-12, global = 2.3412e-12, cumulative = 0.00013172
smoothSolver:  Solving for epsilon, Initial residual = 8.25367e-12, Final residual = 2.23705e-13, No Iterations 1
smoothSolver:  Solving for k, Initial residual = 1.91027e-11, Final residual = 1.10009e-12, No Iterations 1
ExecutionTime = 13.38 s  ClockTime = 14 s

Courant Number mean: 0.127326 max: 0.996463
Interface Courant Number mean: 0.000689818 max: 0.341574
deltaT = 0.000187266
Time = 0.497566

PIMPLE: iteration 1
smoothSolver:  Solving for alpha.upper, Initial residual = 1.64432e-06, Final residual = 2.31364e-13, No Iterations 2
Phase-1 volume fraction = 0.499286  Min(alpha.upper) = -4.63939e-66  Max(alpha.upper) = 1
MULES: Correcting alpha.upper
MULES: Correcting alpha.upper
Phase-1 volume fraction = 0.499286  Min(alpha.upper) = -5.85867e-10  Max(alpha.upper) = 1
GAMG:  Solving for p_rgh, Initial residual = 6.63374e-09, Final residual = 9.86947e-10, No Iterations 1
time step continuity errors : sum local = 4.28491e-12, global = -7.51941e-13, cumulative = 0.00013172
GAMG:  Solving for p_rgh, Initial residual = 1.03887e-09, Final residual = 1.03887e-09, No Iterations 0
time step continuity errors : sum local = 4.51035e-12, global = -7.51856e-13, cumulative = 0.00013172
GAMG:  Solving for p_rgh, Initial residual = 1.08045e-09, Final residual = 1.08045e-09, No Iterations 0
time step continuity errors : sum local = 4.69084e-12, global = -7.51849e-13, cumulative = 0.00013172
smoothSolver:  Solving for epsilon, Initial residual = 4.62528e-12, Final residual = 1.21909e-13, No Iterations 1
smoothSolver:  Solving for k, Initial residual = 1.23232e-11, Final residual = 6.753e-13, No Iterations 1
ExecutionTime = 13.39 s  ClockTime = 14 s

Courant Number mean: 0.127326 max: 0.996463
Interface Courant Number mean: 0.000689818 max: 0.341574
deltaT = 0.000187266
Time = 0.497753

PIMPLE: iteration 1
smoothSolver:  Solving for alpha.upper, Initial residual = 1.64432e-06, Final residual = 2.31286e-13, No Iterations 2
Phase-1 volume fraction = 0.499286  Min(alpha.upper) = -4.39417e-66  Max(alpha.upper) = 1
MULES: Correcting alpha.upper
MULES: Correcting alpha.upper
Phase-1 volume fraction = 0.499286  Min(alpha.upper) = -5.85867e-10  Max(alpha.upper) = 1
GAMG:  Solving for p_rgh, Initial residual = 3.96043e-09, Final residual = 3.96043e-09, No Iterations 0
time step continuity errors : sum local = 1.71945e-11, global = -7.55875e-13, cumulative = 0.00013172
GAMG:  Solving for p_rgh, Initial residual = 4.11894e-09, Final residual = 4.11894e-09, No Iterations 0
time step continuity errors : sum local = 1.78827e-11, global = -7.55791e-13, cumulative = 0.00013172
GAMG:  Solving for p_rgh, Initial residual = 4.17102e-09, Final residual = 4.17102e-09, No Iterations 0
time step continuity errors : sum local = 1.81088e-11, global = -7.55783e-13, cumulative = 0.00013172
smoothSolver:  Solving for epsilon, Initial residual = 2.56499e-12, Final residual = 9.0507e-14, No Iterations 1
smoothSolver:  Solving for k, Initial residual = 2.11715e-11, Final residual = 1.63983e-12, No Iterations 1
ExecutionTime = 13.39 s  ClockTime = 14 s

Courant Number mean: 0.127326 max: 0.996463
Interface Courant Number mean: 0.000689818 max: 0.341574
deltaT = 0.000187266
Time = 0.49794

PIMPLE: iteration 1
smoothSolver:  Solving for alpha.upper, Initial residual = 1.64432e-06, Final residual = 2.31498e-13, No Iterations 2
Phase-1 volume fraction = 0.499286  Min(alpha.upper) = -4.16192e-66  Max(alpha.upper) = 1
MULES: Correcting alpha.upper
MULES: Correcting alpha.upper
Phase-1 volume fraction = 0.499286  Min(alpha.upper) = -5.85867e-10  Max(alpha.upper) = 1
GAMG:  Solving for p_rgh, Initial residual = 4.37599e-09, Final residual = 4.37599e-09, No Iterations 0
time step continuity errors : sum local = 1.89987e-11, global = -7.54113e-13, cumulative = 0.00013172
GAMG:  Solving for p_rgh, Initial residual = 4.60091e-09, Final residual = 4.60091e-09, No Iterations 0
time step continuity errors : sum local = 1.99752e-11, global = -7.54032e-13, cumulative = 0.00013172
GAMG:  Solving for p_rgh, Initial residual = 4.64901e-09, Final residual = 4.64901e-09, No Iterations 0
time step continuity errors : sum local = 2.0184e-11, global = -7.54025e-13, cumulative = 0.00013172
smoothSolver:  Solving for epsilon, Initial residual = 2.57733e-12, Final residual = 7.09399e-14, No Iterations 1
smoothSolver:  Solving for k, Initial residual = 1.87322e-11, Final residual = 9.25231e-13, No Iterations 1
ExecutionTime = 13.39 s  ClockTime = 14 s

Courant Number mean: 0.127326 max: 0.996463
Interface Courant Number mean: 0.000689818 max: 0.341574
deltaT = 0.000187266
Time = 0.498127

PIMPLE: iteration 1
smoothSolver:  Solving for alpha.upper, Initial residual = 1.64432e-06, Final residual = 2.32042e-13, No Iterations 2
Phase-1 volume fraction = 0.499286  Min(alpha.upper) = -3.94193e-66  Max(alpha.upper) = 1
MULES: Correcting alpha.upper
MULES: Correcting alpha.upper
Phase-1 volume fraction = 0.499286  Min(alpha.upper) = -5.85867e-10  Max(alpha.upper) = 1
GAMG:  Solving for p_rgh, Initial residual = 8.60784e-09, Final residual = 1.26829e-09, No Iterations 1
time step continuity errors : sum local = 5.50639e-12, global = 1.03071e-12, cumulative = 0.00013172
GAMG:  Solving for p_rgh, Initial residual = 1.56363e-09, Final residual = 1.56363e-09, No Iterations 0
time step continuity errors : sum local = 6.78864e-12, global = 1.03079e-12, cumulative = 0.00013172
GAMG:  Solving for p_rgh, Initial residual = 1.71534e-09, Final residual = 1.71534e-09, No Iterations 0
time step continuity errors : sum local = 7.44728e-12, global = 1.03079e-12, cumulative = 0.00013172
smoothSolver:  Solving for epsilon, Initial residual = 3.56118e-12, Final residual = 1.57957e-13, No Iterations 1
smoothSolver:  Solving for k, Initial residual = 2.71445e-11, Final residual = 1.45974e-12, No Iterations 1
ExecutionTime = 13.4 s  ClockTime = 14 s

Courant Number mean: 0.127326 max: 0.996463
Interface Courant Number mean: 0.000689818 max: 0.341574
deltaT = 0.000187266
Time = 0.498315

PIMPLE: iteration 1
smoothSolver:  Solving for alpha.upper, Initial residual = 1.64432e-06, Final residual = 2.31302e-13, No Iterations 2
Phase-1 volume fraction = 0.499286  Min(alpha.upper) = -3.73358e-66  Max(alpha.upper) = 1
MULES: Correcting alpha.upper
MULES: Correcting alpha.upper
Phase-1 volume fraction = 0.499286  Min(alpha.upper) = -5.85867e-10  Max(alpha.upper) = 1
GAMG:  Solving for p_rgh, Initial residual = 8.1114e-09, Final residual = 9.79616e-10, No Iterations 1
time step continuity errors : sum local = 4.25308e-12, global = -1.54863e-12, cumulative = 0.00013172
GAMG:  Solving for p_rgh, Initial residual = 1.1174e-09, Final residual = 1.1174e-09, No Iterations 0
time step continuity errors : sum local = 4.8513e-12, global = -1.54855e-12, cumulative = 0.00013172
GAMG:  Solving for p_rgh, Initial residual = 1.16195e-09, Final residual = 1.16195e-09, No Iterations 0
time step continuity errors : sum local = 5.04469e-12, global = -1.54854e-12, cumulative = 0.00013172
smoothSolver:  Solving for epsilon, Initial residual = 9.71502e-12, Final residual = 1.40805e-13, No Iterations 1
smoothSolver:  Solving for k, Initial residual = 1.33209e-11, Final residual = 7.73194e-13, No Iterations 1
ExecutionTime = 13.4 s  ClockTime = 14 s

Courant Number mean: 0.127326 max: 0.996463
Interface Courant Number mean: 0.000689818 max: 0.341574
deltaT = 0.000187266
Time = 0.498502

PIMPLE: iteration 1
smoothSolver:  Solving for alpha.upper, Initial residual = 1.64432e-06, Final residual = 2.31439e-13, No Iterations 2
Phase-1 volume fraction = 0.499286  Min(alpha.upper) = -3.53624e-66  Max(alpha.upper) = 1
MULES: Correcting alpha.upper
MULES: Correcting alpha.upper
Phase-1 volume fraction = 0.499286  Min(alpha.upper) = -5.85867e-10  Max(alpha.upper) = 1
GAMG:  Solving for p_rgh, Initial residual = 4.92548e-09, Final residual = 4.92548e-09, No Iterations 0
time step continuity errors : sum local = 2.13844e-11, global = -1.55449e-12, cumulative = 0.00013172
GAMG:  Solving for p_rgh, Initial residual = 5.09481e-09, Final residual = 7.16023e-10, No Iterations 1
time step continuity errors : sum local = 3.10867e-12, global = 6.91283e-14, cumulative = 0.00013172
GAMG:  Solving for p_rgh, Initial residual = 7.97155e-10, Final residual = 7.97155e-10, No Iterations 0
time step continuity errors : sum local = 3.46091e-12, global = 6.91351e-14, cumulative = 0.00013172
smoothSolver:  Solving for epsilon, Initial residual = 6.09654e-12, Final residual = 1.1905e-13, No Iterations 1
smoothSolver:  Solving for k, Initial residual = 1.42113e-11, Final residual = 7.9549e-13, No Iterations 1
ExecutionTime = 13.42 s  ClockTime = 14 s

Courant Number mean: 0.127326 max: 0.996463
Interface Courant Number mean: 0.000689818 max: 0.341574
deltaT = 0.000187266
Time = 0.498689

PIMPLE: iteration 1
smoothSolver:  Solving for alpha.upper, Initial residual = 1.64432e-06, Final residual = 2.30945e-13, No Iterations 2
Phase-1 volume fraction = 0.499286  Min(alpha.upper) = -3.34933e-66  Max(alpha.upper) = 1
MULES: Correcting alpha.upper
MULES: Correcting alpha.upper
Phase-1 volume fraction = 0.499286  Min(alpha.upper) = -5.85867e-10  Max(alpha.upper) = 1
GAMG:  Solving for p_rgh, Initial residual = 3.20279e-09, Final residual = 3.20279e-09, No Iterations 0
time step continuity errors : sum local = 1.39051e-11, global = 7.10521e-14, cumulative = 0.00013172
GAMG:  Solving for p_rgh, Initial residual = 3.36585e-09, Final residual = 3.36585e-09, No Iterations 0
time step continuity errors : sum local = 1.46131e-11, global = 7.113e-14, cumulative = 0.00013172
GAMG:  Solving for p_rgh, Initial residual = 3.42096e-09, Final residual = 3.42096e-09, No Iterations 0
time step continuity errors : sum local = 1.48524e-11, global = 7.11364e-14, cumulative = 0.00013172
smoothSolver:  Solving for epsilon, Initial residual = 2.87463e-12, Final residual = 7.99951e-14, No Iterations 1
smoothSolver:  Solving for k, Initial residual = 2.47784e-11, Final residual = 1.74209e-12, No Iterations 1
ExecutionTime = 13.42 s  ClockTime = 14 s

Courant Number mean: 0.127326 max: 0.996463
Interface Courant Number mean: 0.000689818 max: 0.341574
deltaT = 0.000187266
Time = 0.498876

PIMPLE: iteration 1
smoothSolver:  Solving for alpha.upper, Initial residual = 1.64432e-06, Final residual = 2.31736e-13, No Iterations 2
Phase-1 volume fraction = 0.499286  Min(alpha.upper) = -3.1723e-66  Max(alpha.upper) = 1
MULES: Correcting alpha.upper
MULES: Correcting alpha.upper
Phase-1 volume fraction = 0.499286  Min(alpha.upper) = -5.85867e-10  Max(alpha.upper) = 1
GAMG:  Solving for p_rgh, Initial residual = 4.18892e-09, Final residual = 4.18892e-09, No Iterations 0
time step continuity errors : sum local = 1.81865e-11, global = 7.34953e-14, cumulative = 0.00013172
GAMG:  Solving for p_rgh, Initial residual = 4.40942e-09, Final residual = 4.40942e-09, No Iterations 0
time step continuity errors : sum local = 1.91439e-11, global = 7.35714e-14, cumulative = 0.00013172
GAMG:  Solving for p_rgh, Initial residual = 4.47516e-09, Final residual = 4.47516e-09, No Iterations 0
time step continuity errors : sum local = 1.94293e-11, global = 7.35781e-14, cumulative = 0.00013172
smoothSolver:  Solving for epsilon, Initial residual = 5.13229e-12, Final residual = 2.70328e-13, No Iterations 1
smoothSolver:  Solving for k, Initial residual = 3.35354e-11, Final residual = 1.26524e-12, No Iterations 1
ExecutionTime = 13.43 s  ClockTime = 14 s

Courant Number mean: 0.127326 max: 0.996463
Interface Courant Number mean: 0.000689818 max: 0.341574
deltaT = 0.000187266
Time = 0.499064

PIMPLE: iteration 1
smoothSolver:  Solving for alpha.upper, Initial residual = 1.64432e-06, Final residual = 2.34004e-13, No Iterations 2
Phase-1 volume fraction = 0.499286  Min(alpha.upper) = -3.00462e-66  Max(alpha.upper) = 1
MULES: Correcting alpha.upper
MULES: Correcting alpha.upper
Phase-1 volume fraction = 0.499286  Min(alpha.upper) = -5.85867e-10  Max(alpha.upper) = 1
GAMG:  Solving for p_rgh, Initial residual = 7.76372e-09, Final residual = 1.18794e-09, No Iterations 1
time step continuity errors : sum local = 5.15752e-12, global = -8.46975e-13, cumulative = 0.00013172
GAMG:  Solving for p_rgh, Initial residual = 1.40592e-09, Final residual = 1.40592e-09, No Iterations 0
time step continuity errors : sum local = 6.10393e-12, global = -8.46901e-13, cumulative = 0.00013172
GAMG:  Solving for p_rgh, Initial residual = 1.53125e-09, Final residual = 1.53125e-09, No Iterations 0
time step continuity errors : sum local = 6.64806e-12, global = -8.46895e-13, cumulative = 0.00013172
smoothSolver:  Solving for epsilon, Initial residual = 1.39804e-11, Final residual = 3.86567e-13, No Iterations 1
smoothSolver:  Solving for k, Initial residual = 2.67324e-11, Final residual = 1.29405e-12, No Iterations 1
ExecutionTime = 13.43 s  ClockTime = 14 s

Courant Number mean: 0.127326 max: 0.996463
Interface Courant Number mean: 0.000689818 max: 0.341574
deltaT = 0.000187266
Time = 0.499251

PIMPLE: iteration 1
smoothSolver:  Solving for alpha.upper, Initial residual = 1.64432e-06, Final residual = 2.31899e-13, No Iterations 2
Phase-1 volume fraction = 0.499286  Min(alpha.upper) = -2.84581e-66  Max(alpha.upper) = 1
MULES: Correcting alpha.upper
MULES: Correcting alpha.upper
Phase-1 volume fraction = 0.499286  Min(alpha.upper) = -5.85867e-10  Max(alpha.upper) = 1
GAMG:  Solving for p_rgh, Initial residual = 7.4809e-09, Final residual = 1.06583e-09, No Iterations 1
time step continuity errors : sum local = 4.62737e-12, global = 2.35648e-12, cumulative = 0.00013172
GAMG:  Solving for p_rgh, Initial residual = 1.23216e-09, Final residual = 1.23216e-09, No Iterations 0
time step continuity errors : sum local = 5.34953e-12, global = 2.35655e-12, cumulative = 0.00013172
GAMG:  Solving for p_rgh, Initial residual = 1.30943e-09, Final residual = 1.30943e-09, No Iterations 0
time step continuity errors : sum local = 5.68497e-12, global = 2.35656e-12, cumulative = 0.00013172
smoothSolver:  Solving for epsilon, Initial residual = 1.00127e-11, Final residual = 1.48078e-13, No Iterations 1
smoothSolver:  Solving for k, Initial residual = 1.91447e-11, Final residual = 8.08994e-13, No Iterations 1
ExecutionTime = 13.43 s  ClockTime = 14 s

Courant Number mean: 0.127326 max: 0.996463
Interface Courant Number mean: 0.000689818 max: 0.341574
deltaT = 0.000187266
Time = 0.499438

PIMPLE: iteration 1
smoothSolver:  Solving for alpha.upper, Initial residual = 1.64432e-06, Final residual = 2.32156e-13, No Iterations 2
Phase-1 volume fraction = 0.499286  Min(alpha.upper) = -2.69539e-66  Max(alpha.upper) = 1
MULES: Correcting alpha.upper
MULES: Correcting alpha.upper
Phase-1 volume fraction = 0.499286  Min(alpha.upper) = -5.85867e-10  Max(alpha.upper) = 1
GAMG:  Solving for p_rgh, Initial residual = 4.8212e-09, Final residual = 4.8212e-09, No Iterations 0
time step continuity errors : sum local = 2.09316e-11, global = 2.35168e-12, cumulative = 0.00013172
GAMG:  Solving for p_rgh, Initial residual = 5.05134e-09, Final residual = 7.24651e-10, No Iterations 1
time step continuity errors : sum local = 3.14613e-12, global = -6.25032e-13, cumulative = 0.00013172
GAMG:  Solving for p_rgh, Initial residual = 8.85338e-10, Final residual = 8.85338e-10, No Iterations 0
time step continuity errors : sum local = 3.84377e-12, global = -6.25026e-13, cumulative = 0.00013172
smoothSolver:  Solving for epsilon, Initial residual = 1.20262e-11, Final residual = 2.48505e-13, No Iterations 1
smoothSolver:  Solving for k, Initial residual = 2.14857e-11, Final residual = 8.17703e-13, No Iterations 1
ExecutionTime = 13.44 s  ClockTime = 14 s

Courant Number mean: 0.127326 max: 0.996463
Interface Courant Number mean: 0.000689818 max: 0.341574
deltaT = 0.000187266
Time = 0.499625

PIMPLE: iteration 1
smoothSolver:  Solving for alpha.upper, Initial residual = 1.64432e-06, Final residual = 2.31323e-13, No Iterations 2
Phase-1 volume fraction = 0.499286  Min(alpha.upper) = -2.55293e-66  Max(alpha.upper) = 1
MULES: Correcting alpha.upper
MULES: Correcting alpha.upper
Phase-1 volume fraction = 0.499286  Min(alpha.upper) = -5.85867e-10  Max(alpha.upper) = 1
GAMG:  Solving for p_rgh, Initial residual = 3.19944e-09, Final residual = 3.19944e-09, No Iterations 0
time step continuity errors : sum local = 1.38906e-11, global = -6.32175e-13, cumulative = 0.00013172
GAMG:  Solving for p_rgh, Initial residual = 3.41496e-09, Final residual = 3.41496e-09, No Iterations 0
time step continuity errors : sum local = 1.48263e-11, global = -6.32106e-13, cumulative = 0.00013172
GAMG:  Solving for p_rgh, Initial residual = 3.47884e-09, Final residual = 3.47884e-09, No Iterations 0
time step continuity errors : sum local = 1.51037e-11, global = -6.321e-13, cumulative = 0.00013172
smoothSolver:  Solving for epsilon, Initial residual = 7.48964e-12, Final residual = 1.53081e-13, No Iterations 1
smoothSolver:  Solving for k, Initial residual = 1.92197e-11, Final residual = 1.41569e-12, No Iterations 1
ExecutionTime = 13.44 s  ClockTime = 14 s

Courant Number mean: 0.127326 max: 0.996463
Interface Courant Number mean: 0.000689818 max: 0.341574
deltaT = 0.000187266
Time = 0.499813

PIMPLE: iteration 1
smoothSolver:  Solving for alpha.upper, Initial residual = 1.64432e-06, Final residual = 2.3184e-13, No Iterations 2
Phase-1 volume fraction = 0.499286  Min(alpha.upper) = -2.41799e-66  Max(alpha.upper) = 1
MULES: Correcting alpha.upper
MULES: Correcting alpha.upper
Phase-1 volume fraction = 0.499286  Min(alpha.upper) = -5.85867e-10  Max(alpha.upper) = 1
GAMG:  Solving for p_rgh, Initial residual = 4.56409e-09, Final residual = 4.56409e-09, No Iterations 0
time step continuity errors : sum local = 1.98153e-11, global = -6.27968e-13, cumulative = 0.00013172
GAMG:  Solving for p_rgh, Initial residual = 4.842e-09, Final residual = 4.842e-09, No Iterations 0
time step continuity errors : sum local = 2.10219e-11, global = -6.27899e-13, cumulative = 0.00013172
GAMG:  Solving for p_rgh, Initial residual = 4.9325e-09, Final residual = 4.9325e-09, No Iterations 0
time step continuity errors : sum local = 2.14149e-11, global = -6.27893e-13, cumulative = 0.00013172
smoothSolver:  Solving for epsilon, Initial residual = 3.16989e-12, Final residual = 2.3345e-13, No Iterations 1
smoothSolver:  Solving for k, Initial residual = 3.18785e-11, Final residual = 1.06819e-12, No Iterations 1
ExecutionTime = 13.44 s  ClockTime = 14 s

Courant Number mean: 0.127326 max: 0.996463
Interface Courant Number mean: 0.000689818 max: 0.341574
deltaT = 0.000187266
Time = 0.5

PIMPLE: iteration 1
smoothSolver:  Solving for alpha.upper, Initial residual = 1.64433e-06, Final residual = 2.351e-13, No Iterations 2
Phase-1 volume fraction = 0.499286  Min(alpha.upper) = -2.29019e-66  Max(alpha.upper) = 1
MULES: Correcting alpha.upper
MULES: Correcting alpha.upper
Phase-1 volume fraction = 0.499286  Min(alpha.upper) = -5.85867e-10  Max(alpha.upper) = 1
GAMG:  Solving for p_rgh, Initial residual = 8.09643e-09, Final residual = 1.25336e-09, No Iterations 1
time step continuity errors : sum local = 5.44156e-12, global = 2.05313e-13, cumulative = 0.00013172
GAMG:  Solving for p_rgh, Initial residual = 1.46809e-09, Final residual = 1.46809e-09, No Iterations 0
time step continuity errors : sum local = 6.37381e-12, global = 2.05381e-13, cumulative = 0.00013172
GAMG:  Solving for p_rgh, Initial residual = 1.61868e-09, Final residual = 1.61868e-09, No Iterations 0
time step continuity errors : sum local = 7.02764e-12, global = 2.05386e-13, cumulative = 0.00013172
smoothSolver:  Solving for epsilon, Initial residual = 1.61827e-11, Final residual = 4.18239e-13, No Iterations 1
smoothSolver:  Solving for k, Initial residual = 2.61198e-11, Final residual = 1.17775e-12, No Iterations 1
ExecutionTime = 13.45 s  ClockTime = 15 s

End

Finalising parallel run
